@<TRIPOS>MOLECULE
LIG
64 68
SMALL
USER_CHARGES
@<TRIPOS>ATOM
      1 C1           -4.153     -3.427     13.537 C.aa          1 LIG       -0.353417
      2 C2           -3.992     -2.391     14.663 C.ab          1 LIG        0.596034
      3 C3           -4.688     -1.065     14.310 C.ad          1 LIG       -0.353417
      4 C4           -4.487     -2.944     16.010 C.ae          1 LIG       -0.353417
      5 C5           -2.526     -2.106     14.805 C.af          1 LIG       -0.041167
      6 C6           -1.939     -1.076     14.058 C.ah          1 LIG       -0.195437
      7 C7           -0.566     -0.826     14.211 C.ai          1 LIG       -0.214913
      8 C8            0.222     -1.583     15.089 C.aj          1 LIG        0.275444
      9 N1            1.593     -1.349     15.306 N.ak          1 LIG       -0.570465
     10 C9            2.545     -0.469     14.754 C.an          1 LIG        0.441607
     11 N2            2.218      0.355     13.719 N.ao          1 LIG       -0.554347
     12 C10           3.123      1.241     13.218 C.ap          1 LIG        0.220153
     13 C11           4.421      1.304     13.717 C.aq          1 LIG       -0.129114
     14 N3            4.748      0.492     14.765 N.av          1 LIG        0.067237
     15 C12           5.890      0.384     15.504 C.aw          1 LIG       -0.166197
     16 C13           5.572     -0.509     16.518 C.ax          1 LIG        0.027674
     17 N4            4.382     -1.054     16.392 N.ay          1 LIG       -0.528102
     18 C14           3.833     -0.417     15.325 C.az          1 LIG        0.167697
     19 C15           2.656      2.156     12.134 C.bb          1 LIG        0.098554
     20 C16           3.557      2.628     11.167 C.bc          1 LIG       -0.196528
     21 C17           3.129      3.450     10.128 C.bd          1 LIG       -0.137989
     22 C18           1.788      3.808     10.032 C.bf          1 LIG       -0.207400
     23 C19           0.866      3.371     10.989 C.bg          1 LIG        0.217859
     24 N5           -0.540      3.754     10.898 N.bh          1 LIG       -0.507083
     25 C20          -1.255      4.314     11.874 C.bj          1 LIG        0.671860
     26 O1           -0.814      4.493     13.005 O.bk          1 LIG       -0.596592
     27 C21          -2.633      4.685     11.412 C.bl          1 LIG       -0.005763
     28 C22          -3.544      5.229     12.311 C.bm          1 LIG       -0.190884
     29 C23          -4.821      5.574     11.883 C.bn          1 LIG       -0.182433
     30 C24          -5.187      5.373     10.558 C.bo          1 LIG        0.018204
     31 C25          -4.277      4.829      9.660 C.bp          1 LIG       -0.182433
     32 C26          -3.000      4.485     10.087 C.bq          1 LIG       -0.190884
     33 C27          -6.566      5.745     10.097 C.bs          1 LIG        1.043222
     34 O2           -6.914      5.575      8.919 O.bt          1 LIG       -0.871077
     35 O3           -7.345      6.227     10.932 O.bu          1 LIG       -0.871077
     36 C28           1.314      2.558     12.042 C.bv          1 LIG       -0.270471
     37 C29          -0.386     -2.611     15.815 C.bw          1 LIG       -0.214913
     38 C30          -1.750     -2.867     15.680 C.bx          1 LIG       -0.195437
     39 H1           -5.201     -3.683     13.377 H.by          1 LIG        0.067803
     40 H2           -3.619     -4.349     13.768 H.bz          1 LIG        0.067803
     41 H3           -3.757     -3.050     12.593 H.cb          1 LIG        0.067803
     42 H4           -4.300     -0.650     13.379 H.ci          1 LIG        0.067803
     43 H5           -4.531     -0.317     15.088 H.cj          1 LIG        0.067803
     44 H6           -5.764     -1.198     14.191 H.ck          1 LIG        0.067803
     45 H7           -5.553     -3.175     15.980 H.cm          1 LIG        0.067803
     46 H8           -4.327     -2.226     16.815 H.cn          1 LIG        0.067803
     47 H9           -3.958     -3.858     16.281 H.ct          1 LIG        0.067803
     48 H10          -2.530     -0.481     13.378 H.cw          1 LIG        0.139672
     49 H11          -0.153     -0.020     13.630 H.da          1 LIG        0.154768
     50 H12           2.024     -1.888     16.046 H.db          1 LIG        0.354562
     51 H13           5.170      2.003     13.372 H.dc          1 LIG        0.116238
     52 H14           6.766      0.974     15.290 H.dd          1 LIG        0.142244
     53 H15           6.209     -0.833     17.330 H.de          1 LIG        0.137306
     54 H16           4.593      2.331     11.200 H.df          1 LIG        0.149722
     55 H17           3.834      3.794      9.384 H.dg          1 LIG        0.140839
     56 H18           1.456      4.435      9.216 H.dh          1 LIG        0.190182
     57 H19          -0.883      3.526      9.976 H.di          1 LIG        0.299119
     58 H20          -3.258      5.385     13.343 H.dj          1 LIG        0.128231
     59 H21          -5.529      5.997     12.583 H.dk          1 LIG        0.160528
     60 H22          -4.562      4.674      8.628 H.dl          1 LIG        0.160528
     61 H23          -2.291      4.062      9.387 H.dm          1 LIG        0.128231
     62 H24           0.605      2.212     12.781 H.dn          1 LIG        0.128577
     63 H25           0.193     -3.212     16.500 H.do          1 LIG        0.154768
     64 H26          -2.206     -3.661     16.254 H.dp          1 LIG        0.139672
@<TRIPOS>BOND
        1  1  2  1
        2  1  39  1
        3  1  40  1
        4  1  41  1
        5  2  3  1
        6  2  4  1
        7  2  5  1
        8  3  42  1
        9  3  43  1
        10  3  44  1
        11  4  45  1
        12  4  46  1
        13  4  47  1
        14  5  6  2
        15  5  38  1
        16  6  7  1
        17  6  48  1
        18  7  8  2
        19  7  49  1
        20  8  9  1
        21  8  37  1
        22  9  10  1
        23  9  50  1
        24  10  11  2
        25  10  18  1
        26  11  12  1
        27  12  13  2
        28  12  19  1
        29  13  14  1
        30  13  51  1
        31  14  15  1
        32  14  18  1
        33  15  16  2
        34  15  52  1
        35  16  17  1
        36  16  53  1
        37  17  18  2
        38  19  20  2
        39  19  36  1
        40  20  21  1
        41  20  54  1
        42  21  22  2
        43  21  55  1
        44  22  23  1
        45  22  56  1
        46  23  24  1
        47  23  36  2
        48  24  25  1
        49  24  57  1
        50  25  26  2
        51  25  27  1
        52  27  28  2
        53  27  32  1
        54  28  29  1
        55  28  58  1
        56  29  30  2
        57  29  59  1
        58  30  31  1
        59  30  33  1
        60  31  32  2
        61  31  60  1
        62  32  61  1
        63  33  34  2
        64  33  35  1
        65  36  62  1
        66  37  38  2
        67  37  63  1
        68  38  64  1
@<TRIPOS>SUBSTRUCTURE
       1 LIG             1 RESIDUE    0 **** ROOT      0
