@<TRIPOS>MOLECULE
LIG
52 57
SMALL
USER_CHARGES
@<TRIPOS>ATOM
      1 C1           -5.253     -4.028     13.488 c3            1 LIG        0.216451
      2 C2           -4.559     -2.637     13.454 c3            1 LIG        0.047523
      3 N1           -3.892     -2.247     14.714 nh            1 LIG       -0.396024
      4 C3           -4.720     -2.629     15.867 c3            1 LIG        0.047523
      5 C4           -5.426     -3.989     15.840 c3            1 LIG        0.216451
      6 O1           -6.118     -4.151     14.609 os            1 LIG       -0.477191
      7 C5           -2.510     -2.076     14.803 ca            1 LIG        0.256794
      8 C6           -1.881     -1.110     14.018 ca            1 LIG       -0.210562
      9 C7           -0.520     -0.847     14.176 ca            1 LIG       -0.211246
     10 C8            0.236     -1.589     15.100 ca            1 LIG        0.269656
     11 N2            1.609     -1.359     15.351 nu            1 LIG       -0.571187
     12 C9            2.529     -0.433     14.791 cc            1 LIG        0.445557
     13 N3            2.151      0.404     13.777 nd            1 LIG       -0.557826
     14 C10           3.086      1.241     13.232 cd            1 LIG        0.211575
     15 C11           4.392      1.284     13.695 cc            1 LIG       -0.118272
     16 N4            4.735      0.500     14.755 na            1 LIG        0.061927
     17 C12           5.892      0.398     15.479 cc            1 LIG       -0.164050
     18 C13           5.605     -0.548     16.496 cd            1 LIG        0.030591
     19 N5            4.394     -1.060     16.351 nd            1 LIG       -0.517511
     20 C14           3.834     -0.388     15.331 cc            1 LIG        0.172515
     21 C15           2.617      2.145     12.122 ca            1 LIG        0.110901
     22 C16           3.538      2.636     11.169 ca            1 LIG       -0.200992
     23 C17           3.155      3.458     10.109 ca            1 LIG       -0.191070
     24 C18           1.809      3.818     10.015 ca            1 LIG        0.061667
     25 C19           1.000      4.611      9.124 cc            1 LIG       -0.012793
     26 N6           -0.240      4.615      9.530 nd            1 LIG       -0.402559
     27 N7           -0.327      3.878     10.634 na            1 LIG       -0.020361
     28 C20           0.883      3.340     10.993 ca            1 LIG        0.070975
     29 C21           1.257      2.501     12.046 ca            1 LIG       -0.253266
     30 C22          -0.387     -2.595     15.835 ca            1 LIG       -0.211246
     31 C23          -1.750     -2.834     15.704 ca            1 LIG       -0.210562
     32 H1           -4.505     -4.820     13.533 h1            1 LIG        0.016981
     33 H2           -5.838     -4.196     12.584 h1            1 LIG        0.016981
     34 H3           -3.857     -2.618     12.618 h1            1 LIG        0.049280
     35 H4           -5.317     -1.895     13.232 h1            1 LIG        0.049280
     36 H5           -4.168     -2.495     16.797 h1            1 LIG        0.049280
     37 H6           -5.476     -1.845     15.909 h1            1 LIG        0.049280
     38 H7           -4.678     -4.769     15.976 h1            1 LIG        0.016981
     39 H8           -6.126     -4.049     16.679 h1            1 LIG        0.016981
     40 H9           -2.463     -0.527     13.326 ha            1 LIG        0.137483
     41 H10          -0.077     -0.061     13.600 ha            1 LIG        0.158259
     42 H11           2.006     -1.948     16.069 hn            1 LIG        0.360908
     43 H12           5.149      1.947     13.304 h4            1 LIG        0.121042
     44 H13           6.769      0.997     15.271 h4            1 LIG        0.147696
     45 H14           6.255     -0.850     17.299 h4            1 LIG        0.147039
     46 H15           4.574      2.350     11.246 ha            1 LIG        0.137670
     47 H16           3.881      3.803      9.381 ha            1 LIG        0.142978
     48 H17           1.305      5.149      8.241 h4            1 LIG        0.149448
     49 H18          -1.212      3.767     11.107 hn            1 LIG        0.284743
     50 H19           0.543      2.147     12.778 ha            1 LIG        0.158558
     51 H20           0.197     -3.180     16.538 ha            1 LIG        0.158259
     52 H21          -2.213     -3.605     16.301 ha            1 LIG        0.137483
@<TRIPOS>BOND
        1  1  2  1
        2  1  6  1
        3  1  32  1
        4  1  33  1
        5  2  3  1
        6  2  34  1
        7  2  35  1
        8  3  4  1
        9  3  7  1
        10  4  5  1
        11  4  36  1
        12  4  37  1
        13  5  6  1
        14  5  38  1
        15  5  39  1
        16  7  8  2
        17  7  31  1
        18  8  9  1
        19  8  40  1
        20  9  10  2
        21  9  41  1
        22  10  11  1
        23  10  30  1
        24  11  12  1
        25  11  42  1
        26  12  13  2
        27  12  20  1
        28  13  14  1
        29  14  15  2
        30  14  21  1
        31  15  16  1
        32  15  43  1
        33  16  17  1
        34  16  20  1
        35  17  18  2
        36  17  44  1
        37  18  19  1
        38  18  45  1
        39  19  20  2
        40  21  22  2
        41  21  29  1
        42  22  23  1
        43  22  46  1
        44  23  24  2
        45  23  47  1
        46  24  25  1
        47  24  28  1
        48  25  26  2
        49  25  48  1
        50  26  27  1
        51  27  28  1
        52  27  49  1
        53  28  29  2
        54  29  50  1
        55  30  31  2
        56  30  51  1
        57  31  52  1
@<TRIPOS>SUBSTRUCTURE
       1 LIG             1 RESIDUE    0 **** ROOT      0
