@<TRIPOS>MOLECULE
L2
62 67 1 0 1
SMALL
USER_CHARGES
@<TRIPOS>ATOM
       1 C1          -4.2555    -3.1029    13.5707 ab            1 L2        0.069622
       2 O1          -3.8740    -2.3535    14.7166 ob            1 L2       -0.345027
       3 C2          -2.5261    -2.1057    14.8053 cn            1 L2        0.173682
       4 C3          -1.7497    -2.8673    15.6804 cm            1 L2       -0.228267
       5 C4          -0.3863    -2.6106    15.8150 cm            1 L2       -0.230869
       6 C5           0.2220    -1.5829    15.0890 cn            1 L2        0.287624
       7 N1           1.5930    -1.3491    15.3060 nl            1 L2       -0.599744
       8 C6           2.5452    -0.4689    14.7536 cw            1 L2        0.441631
       9 N2           2.2178     0.3551    13.7190 ng            1 L2       -0.576049
      10 C7           3.1227     1.2406    13.2181 ck            1 L2        0.238628
      11 C8           4.4207     1.3039    13.7175 cw            1 L2       -0.120231
      12 N3           4.7482     0.4921    14.7654 nm            1 L2        0.052320
      13 C9           5.8898     0.3836    15.5035 aa            1 L2       -0.162574
      14 C10          5.5715    -0.5089    16.5177 cj            1 L2        0.029392
      15 N4           4.3818    -1.0543    16.3920 ng            1 L2       -0.532366
      16 C11          3.8330    -0.4170    15.3252 aa            1 L2        0.180826
      17 C12          2.6564     2.1560    12.1340 ct            1 L2        0.063371
      18 C13          3.5566     2.6280    11.1666 cm            1 L2       -0.178540
      19 C14          3.1294     3.4499    10.1277 cm            1 L2       -0.142256
      20 C15          1.7879     3.8078    10.0318 cm            1 L2       -0.201024
      21 C16          0.8660     3.3707    10.9895 cn            1 L2       -0.000458
      22 C17          1.3140     2.5576    12.0419 cm            1 L2       -0.227967
      23 C18         -0.5783     3.7648    10.8956 cb            1 L2        0.711449
      24 O2          -1.2780     3.6594     9.8925 oa            1 L2       -0.614727
      25 N5          -1.0343     4.2553    12.0485 nk            1 L2       -0.559193
      26 C19         -2.3943     4.7285    12.2897 cn            1 L2        0.211002
      27 C20         -2.6544     5.5820    13.3553 cm            1 L2       -0.222200
      28 C21         -3.9490     6.0325    13.5849 cm            1 L2       -0.201493
      29 C22         -4.9835     5.6294    12.7489 cn            1 L2        0.084233
      30 C23         -4.7235     4.7759    11.6833 cm            1 L2       -0.200593
      31 C24         -3.4289     4.3254    11.4537 cm            1 L2       -0.218257
      32 C25         -6.3808     6.1155    12.9967 ci            1 L2        0.396545
      33 N6          -7.4427     5.4157    12.6869 nj            1 L2       -0.408176
      34 N7          -8.5101     6.1905    13.0642 nj            1 L2       -0.138866
      35 N8          -8.0145     7.3480    13.5959 ng            1 L2       -0.138866
      36 N9          -6.6463     7.2766    13.5417 ng            1 L2       -0.408176
      37 C26         -0.5664    -0.8256    14.2115 cm            1 L2       -0.306836
      38 C27         -1.9389    -1.0760    14.0580 cn            1 L2        0.185259
      39 O3          -2.6991    -0.3052    13.2021 ob            1 L2       -0.339358
      40 C28         -2.0020     0.6746    12.5251 ab            1 L2        0.069297
      41 H1          -3.7528    -4.0708    13.5508 hi            1 L2        0.051796
      42 H2          -4.0179    -2.5675    12.6505 hi            1 L2        0.051796
      43 H3          -5.3306    -3.2808    13.5889 hi            1 L2        0.051796
      44 H4          -2.2100    -3.6528    16.2607 hd            1 L2        0.157990
      45 H5           0.1911    -3.2101    16.5029 hd            1 L2        0.192987
      46 H6           2.0246    -1.8858    16.0475 hh            1 L2        0.371535
      47 H7           5.1701     2.0030    13.3719 hb            1 L2        0.128372
      48 H8           6.7656     0.9739    15.2897 hb            1 L2        0.144784
      49 H9           6.2089    -0.8330    17.3301 hb            1 L2        0.137072
      50 H10          4.5934     2.3309    11.2002 hd            1 L2        0.158900
      51 H11          3.8342     3.7939     9.3845 hd            1 L2        0.140708
      52 H12          1.4564     4.4350     9.2166 hd            1 L2        0.140216
      53 H13          0.6053     2.2130    12.7811 hd            1 L2        0.163794
      54 H14         -0.4948     4.3595    12.8959 hh            1 L2        0.315163
      55 H15         -1.8489     5.8959    14.0061 hd            1 L2        0.113488
      56 H16         -4.1515     6.6970    14.4145 hd            1 L2        0.150361
      57 H17         -5.5289     4.4620    11.0325 hd            1 L2        0.155427
      58 H18         -3.2264     3.6609    10.6241 hd            1 L2        0.174135
      59 H19         -0.1547    -0.0168    13.6337 hd            1 L2        0.150576
      60 H20         -2.6851     1.2257    11.8787 hi            1 L2        0.052113
      61 H21         -1.2218     0.2131    11.9198 hi            1 L2        0.052113
      62 H22         -1.5485     1.3591    13.2420 hi            1 L2        0.052113
@<TRIPOS>BOND
       1        1        2 1
       2        1       41 1
       3        1       42 1
       4        1       43 1
       5        2        3 1
       6        3        4 2
       7        3       38 1
       8        4        5 1
       9        4       44 1
      10        5        6 2
      11        5       45 1
      12        6        7 1
      13        6       37 1
      14        7        8 1
      15        7       46 1
      16        8        9 2
      17        8       16 1
      18        9       10 1
      19       10       11 2
      20       10       17 1
      21       11       12 1
      22       11       47 1
      23       12       13 1
      24       12       16 1
      25       13       14 2
      26       13       48 1
      27       14       15 1
      28       14       49 1
      29       15       16 2
      30       17       18 2
      31       17       22 1
      32       18       19 1
      33       18       50 1
      34       19       20 2
      35       19       51 1
      36       20       21 1
      37       20       52 1
      38       21       22 2
      39       21       23 1
      40       22       53 1
      41       23       24 2
      42       23       25 1
      43       25       26 1
      44       25       54 1
      45       26       27 2
      46       26       31 1
      47       27       28 1
      48       27       55 1
      49       28       29 2
      50       28       56 1
      51       29       30 1
      52       29       32 1
      53       30       31 2
      54       30       57 1
      55       31       58 1
      56       32       36 2
      57       32       33 1
      58       33       34 1
      59       34       35 2
      60       35       36 1
      61       37       38 2
      62       37       59 1
      63       38       39 1
      64       39       40 1
      65       40       60 1
      66       40       61 1
      67       40       62 1
@<TRIPOS>SUBSTRUCTURE
       1 L2             1 RESIDUE    0 **** ROOT      0
