@<TRIPOS>MOLECULE
LIG
60 63
SMALL
USER_CHARGES
@<TRIPOS>ATOM
      1 C1           22.915     29.893     48.156 c3            1 LIG       -0.252156
      2 N1           24.255     30.648     48.301 nx            1 LIG        0.038868
      3 C2           25.122     30.472     47.033 c3            1 LIG       -0.252156
      4 C3           24.043     32.132     48.686 c3            1 LIG        0.114986
      5 C4           25.306     32.676     49.376 c3            1 LIG       -0.077839
      6 C5           25.155     34.080     49.960 c3            1 LIG        0.218060
      7 O1           23.939     34.177     50.686 os            1 LIG       -0.386811
      8 C6           23.883     33.780     52.001 ca            1 LIG        0.084797
      9 C7           24.903     33.926     52.954 ca            1 LIG        0.213580
     10 N2           24.711     33.657     54.273 nb            1 LIG       -0.556165
     11 C8           23.474     33.217     54.642 cp            1 LIG        0.601593
     12 N3           22.446     33.000     53.778 nb            1 LIG       -0.556165
     13 C9           22.671     33.281     52.473 ca            1 LIG        0.213580
     14 C10          23.218     32.927     56.093 cp            1 LIG       -0.026962
     15 C11          24.248     32.970     57.045 ca            1 LIG       -0.164892
     16 C12          24.021     32.623     58.375 ca            1 LIG       -0.133039
     17 C13          22.753     32.219     58.779 ca            1 LIG       -0.186659
     18 C14          21.700     32.190     57.867 ca            1 LIG        0.091324
     19 C15          20.300     31.782     58.313 c3            1 LIG        0.028583
     20 N4           19.956     30.400     57.932 n             1 LIG        0.042532
     21 N5           19.438     30.230     56.646 nc            1 LIG       -0.393784
     22 C16          19.079     29.074     56.187 cd            1 LIG        0.212288
     23 C17          19.312     27.934     57.063 cd            1 LIG       -0.098209
     24 C18          19.846     28.086     58.296 cc            1 LIG       -0.196356
     25 C19          20.199     29.388     58.836 c             1 LIG        0.557977
     26 O2           20.646     29.526     59.976 o             1 LIG       -0.628447
     27 C20          18.468     28.902     54.848 ca            1 LIG        0.021498
     28 C21          18.247     27.643     54.263 ca            1 LIG       -0.168875
     29 C22          17.643     27.545     53.010 ca            1 LIG       -0.219620
     30 C23          17.258     28.719     52.361 ca            1 LIG        0.277386
     31 N6           17.453     29.950     52.894 nb            1 LIG       -0.524088
     32 C24          18.049     30.025     54.110 ca            1 LIG        0.217100
     33 C25          21.934     32.560     56.542 ca            1 LIG       -0.225912
     34 H1           22.384     29.973     49.106 hx            1 LIG        0.150597
     35 H2           23.145     28.848     47.936 hx            1 LIG        0.150597
     36 H3           22.349     30.357     47.345 hx            1 LIG        0.150597
     37 H4           26.067     30.996     47.179 hx            1 LIG        0.150597
     38 H5           24.571     30.890     46.188 hx            1 LIG        0.150597
     39 H6           25.298     29.403     46.901 hx            1 LIG        0.150597
     40 H7           23.766     32.674     47.781 hx            1 LIG        0.042763
     41 H8           23.200     32.142     49.379 hx            1 LIG        0.042763
     42 H9           25.601     31.998     50.180 hc            1 LIG        0.052383
     43 H10          26.128     32.727     48.663 hc            1 LIG        0.052383
     44 H11          26.041     34.328     50.542 h1            1 LIG        0.038513
     45 H12          25.105     34.808     49.148 h1            1 LIG        0.038513
     46 H13          25.869     34.333     52.695 h4            1 LIG        0.068537
     47 H14          21.848     33.126     51.797 h4            1 LIG        0.068537
     48 H15          25.252     33.256     56.761 ha            1 LIG        0.170123
     49 H16          24.837     32.660     59.084 ha            1 LIG        0.156882
     50 H17          22.587     31.926     59.804 ha            1 LIG        0.155189
     51 H18          20.189     31.951     59.386 h1            1 LIG        0.083759
     52 H19          19.578     32.465     57.862 h1            1 LIG        0.083759
     53 H20          19.070     26.926     56.763 ha            1 LIG        0.117694
     54 H21          20.013     27.220     58.920 ha            1 LIG        0.128928
     55 H22          18.543     26.726     54.747 ha            1 LIG        0.165050
     56 H23          17.484     26.581     52.549 ha            1 LIG        0.154734
     57 H24          16.786     28.681     51.390 h4            1 LIG        0.070400
     58 H25          18.175     31.026     54.493 h4            1 LIG        0.060185
     59 H26          21.107     32.521     55.850 ha            1 LIG        0.195482
     60 H27          24.758     30.220     49.069 hn            1 LIG        0.263828
@<TRIPOS>BOND
        1  1  2  1
        2  1  34  1
        3  1  35  1
        4  1  36  1
        5  2  3  1
        6  2  4  1
        7  2  60  1
        8  3  37  1
        9  3  38  1
        10  3  39  1
        11  4  5  1
        12  4  40  1
        13  4  41  1
        14  5  6  1
        15  5  42  1
        16  5  43  1
        17  6  7  1
        18  6  44  1
        19  6  45  1
        20  7  8  1
        21  8  9  2
        22  8  13  1
        23  9  10  1
        24  9  46  1
        25  10  11  2
        26  11  12  1
        27  11  14  1
        28  12  13  2
        29  13  47  1
        30  14  15  2
        31  14  33  1
        32  15  16  1
        33  15  48  1
        34  16  17  2
        35  16  49  1
        36  17  18  1
        37  17  50  1
        38  18  19  1
        39  18  33  2
        40  19  20  1
        41  19  51  1
        42  19  52  1
        43  20  21  1
        44  20  25  1
        45  21  22  2
        46  22  23  1
        47  22  27  1
        48  23  24  2
        49  23  53  1
        50  24  25  1
        51  24  54  1
        52  25  26  2
        53  27  28  2
        54  27  32  1
        55  28  29  1
        56  28  55  1
        57  29  30  2
        58  29  56  1
        59  30  31  1
        60  30  57  1
        61  31  32  2
        62  32  58  1
        63  33  59  1
@<TRIPOS>SUBSTRUCTURE
       1 LIG             1 RESIDUE    0 **** ROOT      0
