@<TRIPOS>MOLECULE
LIG
43 47
SMALL
USER_CHARGES
@<TRIPOS>ATOM
      1 C1           -4.251     -3.101     13.563 c3            1 LIG        0.068235
      2 O1           -3.867     -2.330     14.690 os            1 LIG       -0.368555
      3 C2           -2.517     -2.096     14.807 ca            1 LIG        0.257741
      4 C3           -1.917     -1.070     14.063 ca            1 LIG       -0.212970
      5 C4           -0.549     -0.810     14.207 ca            1 LIG       -0.211230
      6 C5            0.220     -1.587     15.093 ca            1 LIG        0.272623
      7 N1            1.608     -1.373     15.323 nu            1 LIG       -0.569644
      8 C6            2.532     -0.436     14.776 cc            1 LIG        0.446354
      9 N2            2.166      0.386     13.747 nd            1 LIG       -0.556688
     10 C7            3.099      1.236     13.224 cd            1 LIG        0.211869
     11 C8            4.409      1.280     13.702 cc            1 LIG       -0.117546
     12 N3            4.745      0.489     14.757 na            1 LIG        0.063012
     13 C9            5.896      0.378     15.479 cc            1 LIG       -0.163696
     14 C10           5.596     -0.529     16.507 cd            1 LIG        0.031156
     15 N4            4.387     -1.058     16.353 nd            1 LIG       -0.516212
     16 C11           3.835     -0.386     15.331 cc            1 LIG        0.172590
     17 C12           2.626      2.155     12.119 ca            1 LIG        0.110828
     18 C13           3.544      2.638     11.164 ca            1 LIG       -0.200912
     19 C14           3.147      3.459     10.111 ca            1 LIG       -0.190814
     20 C15           1.803      3.814     10.016 ca            1 LIG        0.061996
     21 C16           0.993      4.600      9.120 cc            1 LIG       -0.012646
     22 N5           -0.243      4.614      9.516 nd            1 LIG       -0.402152
     23 N6           -0.335      3.886     10.625 na            1 LIG       -0.020053
     24 C17           0.881      3.348     10.992 ca            1 LIG        0.070978
     25 C18           1.264      2.524     12.047 ca            1 LIG       -0.253337
     26 C19          -0.396     -2.616     15.813 ca            1 LIG       -0.211230
     27 C20          -1.750     -2.868     15.675 ca            1 LIG       -0.212970
     28 H1           -5.330     -3.247     13.583 h1            1 LIG        0.053312
     29 H2           -3.785     -4.087     13.564 h1            1 LIG        0.053312
     30 H3           -4.003     -2.588     12.635 h1            1 LIG        0.053312
     31 H4           -2.517     -0.478     13.383 ha            1 LIG        0.152975
     32 H5           -0.106     -0.020     13.643 ha            1 LIG        0.165183
     33 H6            2.002     -1.971     16.033 hn            1 LIG        0.363241
     34 H7            5.164      1.959     13.328 h4            1 LIG        0.122301
     35 H8            6.769      0.970     15.272 h4            1 LIG        0.148827
     36 H9            6.250     -0.791     17.318 h4            1 LIG        0.148458
     37 H10           4.590      2.344     11.239 ha            1 LIG        0.137979
     38 H11           3.857      3.802      9.395 ha            1 LIG        0.143566
     39 H12           1.299      5.123      8.249 h4            1 LIG        0.150015
     40 H13          -1.224      3.784     11.091 hn            1 LIG        0.284422
     41 H14           0.564      2.192     12.779 ha            1 LIG        0.158211
     42 H15           0.189     -3.216     16.500 ha            1 LIG        0.165183
     43 H16          -2.205     -3.657     16.250 ha            1 LIG        0.152975
@<TRIPOS>BOND
        1  1  2  1
        2  1  28  1
        3  1  29  1
        4  1  30  1
        5  2  3  1
        6  3  4  2
        7  3  27  1
        8  4  5  1
        9  4  31  1
        10  5  6  2
        11  5  32  1
        12  6  7  1
        13  6  26  1
        14  7  8  1
        15  7  33  1
        16  8  9  2
        17  8  16  1
        18  9  10  1
        19  10  11  2
        20  10  17  1
        21  11  12  1
        22  11  34  1
        23  12  13  1
        24  12  16  1
        25  13  14  2
        26  13  35  1
        27  14  15  1
        28  14  36  1
        29  15  16  2
        30  17  18  2
        31  17  25  1
        32  18  19  1
        33  18  37  1
        34  19  20  2
        35  19  38  1
        36  20  21  1
        37  20  24  1
        38  21  22  2
        39  21  39  1
        40  22  23  1
        41  23  24  1
        42  23  40  1
        43  24  25  2
        44  25  41  1
        45  26  27  2
        46  26  42  1
        47  27  43  1
@<TRIPOS>SUBSTRUCTURE
       1 LIG             1 RESIDUE    0 **** ROOT      0
