@<TRIPOS>MOLECULE
LIG
57 59
SMALL
USER_CHARGES
@<TRIPOS>ATOM
      1 C1           24.131     31.299     47.829 C.aa          1 LIG       -0.170326
      2 N1           25.047     32.289     48.580 N.ab          1 LIG       -0.147700
      3 C2           25.123     33.664     47.885 C.ad          1 LIG       -0.170326
      4 C3           24.762     32.367     50.099 C.ae          1 LIG        0.121805
      5 C4           23.402     33.023     50.422 C.af          1 LIG       -0.082639
      6 C5           23.128     33.078     51.926 C.ah          1 LIG        0.208018
      7 O1           24.163     33.826     52.570 O.ai          1 LIG       -0.496290
      8 C6           24.352     33.886     53.918 C.aj          1 LIG        0.849002
      9 O2           25.403     34.326     54.378 O.ak          1 LIG       -0.609006
     10 N2           23.248     33.427     54.643 N.an          1 LIG       -0.502542
     11 C7           23.137     33.125     56.009 C.ao          1 LIG        0.208503
     12 C8           24.214     33.125     56.909 C.ap          1 LIG       -0.212060
     13 C9           24.025     32.706     58.225 C.aq          1 LIG       -0.132360
     14 C10          22.770     32.271     58.652 C.av          1 LIG       -0.197424
     15 C11          21.686     32.274     57.770 C.aw          1 LIG        0.093537
     16 C12          20.302     31.840     58.250 C.ax          1 LIG        0.027711
     17 N3           19.963     30.448     57.903 N.ay          1 LIG        0.044789
     18 N4           19.446     30.240     56.619 N.az          1 LIG       -0.387303
     19 C13          19.131     29.066     56.170 C.bb          1 LIG        0.216048
     20 C14          19.374     27.950     57.077 C.bc          1 LIG       -0.096495
     21 C15          19.877     28.144     58.318 C.bd          1 LIG       -0.195369
     22 C16          20.210     29.457     58.833 C.bf          1 LIG        0.559309
     23 O3           20.646     29.621     59.975 O.bg          1 LIG       -0.629360
     24 C17          18.550     28.855     54.817 C.bh          1 LIG        0.115540
     25 C18          18.082     27.599     54.383 C.bj          1 LIG       -0.265989
     26 C19          17.507     27.441     53.122 C.bk          1 LIG        0.227261
     27 F1           17.047     26.230     52.738 F.bl          1 LIG       -0.154946
     28 C20          17.403     28.530     52.262 C.bm          1 LIG       -0.272692
     29 C21          17.867     29.778     52.665 C.bn          1 LIG        0.227261
     30 F2           17.761     30.842     51.837 F.bo          1 LIG       -0.154946
     31 C22          18.436     29.938     53.928 C.bp          1 LIG       -0.265989
     32 C23          21.875     32.714     56.455 C.bq          1 LIG       -0.271690
     33 H1           24.188     30.338     48.346 H.bs          1 LIG        0.137035
     34 H2           24.515     31.212     46.812 H.bt          1 LIG        0.137035
     35 H3           23.115     31.697     47.831 H.bu          1 LIG        0.137035
     36 H4           25.811     34.289     48.458 H.bv          1 LIG        0.137035
     37 H5           24.121     34.094     47.852 H.bw          1 LIG        0.137035
     38 H6           25.505     33.494     46.877 H.bx          1 LIG        0.137035
     39 H7           24.831     31.341     50.468 H.by          1 LIG        0.067247
     40 H8           25.602     32.926     50.516 H.bz          1 LIG        0.067247
     41 H9           23.363     34.040     50.028 H.cb          1 LIG        0.077487
     42 H10          22.589     32.474     49.946 H.ci          1 LIG        0.077487
     43 H11          22.163     33.546     52.119 H.cj          1 LIG        0.045627
     44 H12          23.089     32.063     52.332 H.ck          1 LIG        0.045627
     45 H13          22.415     33.252     54.102 H.cm          1 LIG        0.318488
     46 H14          25.209     33.424     56.612 H.cn          1 LIG        0.189407
     47 H15          24.863     32.706     58.909 H.ct          1 LIG        0.160669
     48 H16          22.641     31.926     59.669 H.cw          1 LIG        0.155978
     49 H17          20.214     32.030     59.322 H.da          1 LIG        0.086909
     50 H18          19.558     32.504     57.803 H.db          1 LIG        0.086909
     51 H19          19.173     26.929     56.792 H.dc          1 LIG        0.123964
     52 H20          20.056     27.294     58.960 H.dd          1 LIG        0.138345
     53 H21          18.126     26.726     55.011 H.de          1 LIG        0.185220
     54 H22          16.959     28.405     51.286 H.df          1 LIG        0.196400
     55 H23          18.779     30.923     54.207 H.dg          1 LIG        0.185220
     56 H24          21.035     32.700     55.773 H.dh          1 LIG        0.180938
     57 H25          25.989     31.898     48.530 H.di          1 LIG        0.305291
@<TRIPOS>BOND
        1  1  2  1
        2  1  33  1
        3  1  34  1
        4  1  35  1
        5  2  3  1
        6  2  4  1
        7  2  57  1
        8  3  36  1
        9  3  37  1
        10  3  38  1
        11  4  5  1
        12  4  39  1
        13  4  40  1
        14  5  6  1
        15  5  41  1
        16  5  42  1
        17  6  7  1
        18  6  43  1
        19  6  44  1
        20  7  8  1
        21  8  9  2
        22  8  10  1
        23  10  11  1
        24  10  45  1
        25  11  12  2
        26  11  32  1
        27  12  13  1
        28  12  46  1
        29  13  14  2
        30  13  47  1
        31  14  15  1
        32  14  48  1
        33  15  16  1
        34  15  32  2
        35  16  17  1
        36  16  49  1
        37  16  50  1
        38  17  18  1
        39  17  22  1
        40  18  19  2
        41  19  20  1
        42  19  24  1
        43  20  21  2
        44  20  51  1
        45  21  22  1
        46  21  52  1
        47  22  23  2
        48  24  25  2
        49  24  31  1
        50  25  26  1
        51  25  53  1
        52  26  27  1
        53  26  28  2
        54  28  29  1
        55  28  54  1
        56  29  30  1
        57  29  31  2
        58  31  55  1
        59  32  56  1
@<TRIPOS>SUBSTRUCTURE
       1 LIG             1 RESIDUE    0 **** ROOT      0
