tmc-278
                    3D
 Schrodinger Suite 2022-2.
  0  0  0     0  0            999 V3000
M  V30 BEGIN CTAB
M  V30 COUNTS 46 48 0 0 0
M  V30 BEGIN ATOM
M  V30 1 C  35.1280 33.9680 33.2750 0
M  V30 2 N  34.2470 34.5320 27.6140 0
M  V30 3 C  34.3950 31.8320 34.3670 0
M  V30 4 C  34.9610 31.0950 33.2890 0
M  V30 5 C  35.7170 31.7170 32.2270 0
M  V30 6 C  35.8060 33.2000 32.2270 0
M  V30 7 C  35.1190 35.5120 33.3070 0
M  V30 8 C  34.5210 33.1910 34.3870 0
M  V30 9 C  36.2680 30.8000 31.0700 0
M  V30 10 N  36.3570 33.8920 31.1580 0
M  V30 11 C  35.5120 34.9670 27.7490 0
M  V30 12 C  36.3060 34.6680 28.8700 0
M  V30 13 C  35.6940 34.0010 29.8810 0
M  V30 14 N  34.4650 33.5170 29.8150 0
M  V30 15 C  33.8390 33.7540 28.6940 0
M  V30 16 N  32.5880 33.2410 28.4810 0
M  V30 17 C  30.2450 30.0830 30.1130 0
M  V30 18 C  29.8050 30.7690 28.9980 0
M  V30 19 C  30.6240 31.7690 28.4550 0
M  V30 20 C  31.8200 32.2170 29.0390 0
M  V30 21 C  32.1780 31.6550 30.2960 0
M  V30 22 C  31.4470 30.4920 30.7970 0
M  V30 23 N  28.8160 28.0760 30.9380 0
M  V30 24 C  29.4720 28.9450 30.5950 0
M  V30 25 C  33.3380 31.5130 36.7210 0
M  V30 26 C  33.8280 31.0990 35.5570 0
M  V30 27 N  32.6750 29.8000 38.5620 0
M  V30 28 C  32.9930 30.5750 37.7030 0
M  V30 29 H  34.8610 30.0190 33.3970 0
M  V30 30 H  35.1910 35.9520 32.3040 0
M  V30 31 H  35.9420 35.8850 33.9280 0
M  V30 32 H  34.1430 35.7990 33.7190 0
M  V30 33 H  34.1190 33.8080 35.1860 0
M  V30 34 H  37.3130 31.0520 30.8510 0
M  V30 35 H  35.6770 30.6880 30.1530 0
M  V30 36 H  36.2320 29.8270 31.5750 0
M  V30 37 H  37.0510 34.5960 31.3760 0
M  V30 38 H  35.8460 35.6660 26.9840 0
M  V30 39 H  37.3150 35.0250 29.0520 0
M  V30 40 H  32.2010 33.6190 27.6260 0
M  V30 41 H  28.9750 30.3550 28.4330 0
M  V30 42 H  30.2780 32.1490 27.4980 0
M  V30 43 H  32.9950 32.0360 30.9020 0
M  V30 44 H  31.8270 29.8700 31.6020 0
M  V30 45 H  33.4120 32.5570 37.0160 0
M  V30 46 H  33.7510 30.0230 35.4180 0
M  V30 END ATOM
M  V30 BEGIN BOND
M  V30 1 2 1 6
M  V30 2 1 1 7
M  V30 3 1 1 8
M  V30 4 2 2 11
M  V30 5 1 2 15
M  V30 6 1 3 4
M  V30 7 2 3 8
M  V30 8 1 3 26
M  V30 9 2 4 5
M  V30 10 1 4 29
M  V30 11 1 5 6
M  V30 12 1 5 9
M  V30 13 1 6 10
M  V30 14 1 7 30
M  V30 15 1 7 31
M  V30 16 1 7 32
M  V30 17 1 8 33
M  V30 18 1 9 34
M  V30 19 1 9 35
M  V30 20 1 9 36
M  V30 21 1 10 13
M  V30 22 1 10 37
M  V30 23 1 11 12
M  V30 24 1 11 38
M  V30 25 2 12 13
M  V30 26 1 12 39
M  V30 27 1 13 14
M  V30 28 2 14 15
M  V30 29 1 15 16
M  V30 30 1 16 20
M  V30 31 1 16 40
M  V30 32 2 17 18
M  V30 33 1 17 22
M  V30 34 1 17 24
M  V30 35 1 18 19
M  V30 36 1 18 41
M  V30 37 2 19 20
M  V30 38 1 19 42
M  V30 39 1 20 21
M  V30 40 2 21 22
M  V30 41 1 21 43
M  V30 42 1 22 44
M  V30 43 3 23 24
M  V30 44 2 25 26
M  V30 45 1 25 28
M  V30 46 1 25 45
M  V30 47 1 26 46
M  V30 48 3 27 28
M  V30 END BOND
M  V30 END CTAB
M  END
> <entry id>
44

> <entry name>
hiv-rt-amber-tmc278-tmc125_0.1_ligand5

> <PDB CRYST1 a>
72.535

> <PDB CRYST1 b>
71.091

> <PDB CRYST1 c>
70.541

> <PDB CRYST1 alpha>
90

> <PDB CRYST1 beta>
90

> <PDB CRYST1 gamma>
90

> <PDB CRYST1 Space Group>
P 1

> <PDB CRYST1 z>
1

> <PDB format version>
3.0

> <Source Path>
/Users/sheenam/Downloads

> <Source File>
hiv-rt-amber-tmc278-tmc125_0.pdb

> <Source File Index>
1

> <subgroup title>
hiv-rt-amber-tmc278-tmc125_0_split_by_structure

> <subgroupid>
hiv-rt-amber-tmc278-tmc125_0_split_by_structure

> <subgroup collapsed>
0

$$$$
