@<TRIPOS>MOLECULE
tmc-125
   43    45     1     0     0
SMALL
bcc


@<TRIPOS>ATOM
      1 C1          35.7020    33.1530    32.3410 ca         1 65B       0.113100
      2 O17         36.2470    33.7800    31.1990 os         1 65B      -0.353400
      3 C2          35.6700    31.7460    32.3390 ca         1 65B      -0.059300
      4 C2'         35.9310    30.7870    31.1890 c3         1 65B      -0.058300
      5 C3          35.0780    31.1220    33.4860 ca         1 65B      -0.098000
      6 C4          34.6220    31.9380    34.5260 ca         1 65B      -0.007000
      7 C5          34.8110    33.3230    34.5190 ca         1 65B      -0.098000
      8 C6          35.3130    33.9530    33.4170 ca         1 65B      -0.059300
      9 C6'         35.6430    35.4600    33.4980 c3         1 65B      -0.058300
     10 C13         35.5860    33.9650    30.0300 ca         1 65B       0.740600
     11 N12         34.3850    33.5210    29.8370 nb         1 65B      -0.823000
     12 C11         33.8040    33.7960    28.6690 ca         1 65B       0.947900
     13 N5          32.6050    33.2140    28.3880 nu         1 65B      -0.714300
     14 N16         34.3710    34.4190    27.6180 nb         1 65B      -0.841000
     15 C15         35.5440    34.8610    27.8220 ca         1 65B       0.775200
     16 N18         35.8480    35.4320    26.6740 nv         1 65B      -0.964500
     17 C14         36.2650    34.6700    28.9980 ca         1 65B      -0.406500
     18 C21         31.8170    32.1960    29.0420 ca         1 65B       0.158600
     19 C22         30.6990    31.7750    28.3180 ca         1 65B      -0.145000
     20 C23         29.9190    30.6890    28.6090 ca         1 65B      -0.077500
     21 C24         30.1610    29.9700    29.8600 ca         1 65B      -0.030000
     22 C25         31.2070    30.4630    30.6960 ca         1 65B      -0.077500
     23 C26         32.0440    31.4970    30.2570 ca         1 65B      -0.145000
     24 C27         29.4330    28.6830    30.0340 cg         1 65B       0.233800
     25 N27         28.8860    27.6750    30.1730 n1         1 65B      -0.360800
     26 C4'         33.9860    31.2660    35.6580 cg         1 65B       0.230800
     27 N4'         33.5130    30.8650    36.5970 n1         1 65B      -0.357800
     28 Br          37.9500    35.4660    29.2280 br         1 65B      -0.049100
     29 H2'1        36.3110    31.3640    30.3360 hc         1 65B       0.055367
     30 H2'2        34.9880    30.4950    30.7080 hc         1 65B       0.055367
     31 H2'3        36.4520    29.8410    31.3780 hc         1 65B       0.055367
     32 HC3         35.1050    30.0400    33.5720 ha         1 65B       0.150000
     33 HC5         34.4090    33.9400    35.3170 ha         1 65B       0.150000
     34 H6'1        36.0170    35.9040    32.5670 hc         1 65B       0.055367
     35 H6'2        36.4270    35.5970    34.2540 hc         1 65B       0.055367
     36 H6'3        34.8070    36.0810    33.8410 hc         1 65B       0.055367
     37 HN5         32.2420    33.5400    27.5020 hn         1 65B       0.447800
     38 H181        36.7980    35.7450    26.5250 hn         1 65B       0.451800
     39 H182        35.1200    35.4670    25.9720 hn         1 65B       0.451800
     40 HC22        30.4830    32.3930    27.4520 ha         1 65B       0.152000
     41 HC23        29.0400    30.4320    28.0250 ha         1 65B       0.148500
     42 HC25        31.4450    29.9560    31.6260 ha         1 65B       0.148500
     43 HC26        32.9140    31.7000    30.8750 ha         1 65B       0.152000
@<TRIPOS>BOND
     1     1     2 1   
     2     1     3 ar  
     3     1     8 ar  
     4     2    10 1   
     5     3     4 1   
     6     3     5 ar  
     7     4    29 1   
     8     4    30 1   
     9     4    31 1   
    10     5     6 ar  
    11     5    32 1   
    12     6     7 ar  
    13     6    26 1   
    14     7     8 ar  
    15     7    33 1   
    16     8     9 1   
    17     9    34 1   
    18     9    35 1   
    19     9    36 1   
    20    10    11 ar  
    21    10    17 ar  
    22    11    12 ar  
    23    12    13 1   
    24    12    14 ar  
    25    13    18 1   
    26    13    37 1   
    27    14    15 ar  
    28    15    16 1   
    29    15    17 ar  
    30    16    38 1   
    31    16    39 1   
    32    17    28 1   
    33    18    19 ar  
    34    18    23 ar  
    35    19    20 ar  
    36    19    40 1   
    37    20    21 ar  
    38    20    41 1   
    39    21    22 ar  
    40    21    24 1   
    41    22    23 ar  
    42    22    42 1   
    43    23    43 1   
    44    24    25 3   
    45    26    27 3   
@<TRIPOS>SUBSTRUCTURE
     1 65B         1 TEMP              0 ****  ****    0 ROOT
