@<TRIPOS>MOLECULE
tmc-278
   46    48     1     0     0
SMALL
bcc


@<TRIPOS>ATOM
      1 C1          35.1280    33.9680    33.2750 ca         1 T27      -0.067800
      2 N2          34.2470    34.5320    27.6140 nb         1 T27      -0.767000
      3 C3          34.3950    31.8320    34.3670 ca         1 T27      -0.069800
      4 C4          34.9610    31.0950    33.2890 ca         1 T27      -0.109500
      5 C5          35.7170    31.7170    32.2270 ca         1 T27      -0.067800
      6 C6          35.8060    33.2000    32.2270 ca         1 T27       0.124600
      7 C7          35.1190    35.5120    33.3070 c3         1 T27      -0.058300
      8 C2          34.5210    33.1910    34.3870 ca         1 T27      -0.109500
      9 C8          36.2680    30.8000    31.0700 c3         1 T27      -0.058300
     10 N1          36.3570    33.8920    31.1580 nu         1 T27      -0.716300
     11 C9          35.5120    34.9670    27.7490 ca         1 T27       0.483200
     12 C10         36.3060    34.6680    28.8700 ca         1 T27      -0.457600
     13 C11         35.6940    34.0010    29.8810 ca         1 T27       0.696200
     14 N3          34.4650    33.5170    29.8150 nb         1 T27      -0.778000
     15 C12         33.8390    33.7540    28.6940 ca         1 T27       0.894900
     16 N4          32.5880    33.2410    28.4810 nu         1 T27      -0.713300
     17 C13         30.2450    30.0830    30.1130 ca         1 T27      -0.036000
     18 C14         29.8050    30.7690    28.9980 ca         1 T27      -0.076000
     19 C15         30.6240    31.7690    28.4550 ca         1 T27      -0.148500
     20 C16         31.8200    32.2170    29.0390 ca         1 T27       0.163600
     21 C17         32.1780    31.6550    30.2960 ca         1 T27      -0.148500
     22 C18         31.4470    30.4920    30.7970 ca         1 T27      -0.076000
     23 N5          28.8160    28.0760    30.9380 n1         1 T27      -0.365800
     24 C19         29.4720    28.9450    30.5950 cg         1 T27       0.235800
     25 C20         33.3380    31.5130    36.7210 ce         1 T27      -0.066700
     26 C21         33.8280    31.0990    35.5570 cf         1 T27      -0.045200
     27 N6          32.6750    29.8000    38.5620 n1         1 T27      -0.362800
     28 C22         32.9930    30.5750    37.7030 cg         1 T27       0.183500
     29 HC4         34.8610    30.0190    33.3970 ha         1 T27       0.138500
     30 H7_1        35.1910    35.9520    32.3040 hc         1 T27       0.050200
     31 H7_2        35.9420    35.8850    33.9280 hc         1 T27       0.050200
     32 H7_3        34.1430    35.7990    33.7190 hc         1 T27       0.050200
     33 HC2         34.1190    33.8080    35.1860 ha         1 T27       0.138500
     34 H8_1        37.3130    31.0520    30.8510 hc         1 T27       0.050200
     35 H8_2        35.6770    30.6880    30.1530 hc         1 T27       0.050200
     36 H8_3        36.2320    29.8270    31.5750 hc         1 T27       0.050200
     37 HN1         37.0510    34.5960    31.3760 hn         1 T27       0.422800
     38 HC9         35.8460    35.6660    26.9840 h4         1 T27       0.029100
     39 HC10        37.3150    35.0250    29.0520 ha         1 T27       0.156000
     40 HN4         32.2010    33.6190    27.6260 hn         1 T27       0.444800
     41 HC14        28.9750    30.3550    28.4330 ha         1 T27       0.146000
     42 HC15        30.2780    32.1490    27.4980 ha         1 T27       0.151500
     43 HC17        32.9950    32.0360    30.9020 ha         1 T27       0.151500
     44 HC18        31.8270    29.8700    31.6020 ha         1 T27       0.146000
     45 HC20        33.4120    32.5570    37.0160 ha         1 T27       0.153000
     46 HC21        33.7510    30.0230    35.4180 ha         1 T27       0.140000
@<TRIPOS>BOND
     1     1     6 ar  
     2     1     7 1   
     3     1     8 ar  
     4     2    11 ar  
     5     2    15 ar  
     6     3     4 ar  
     7     3     8 ar  
     8     3    26 1   
     9     4     5 ar  
    10     4    29 1   
    11     5     6 ar  
    12     5     9 1   
    13     6    10 1   
    14     7    30 1   
    15     7    31 1   
    16     7    32 1   
    17     8    33 1   
    18     9    34 1   
    19     9    35 1   
    20     9    36 1   
    21    10    13 1   
    22    10    37 1   
    23    11    12 ar  
    24    11    38 1   
    25    12    13 ar  
    26    12    39 1   
    27    13    14 ar  
    28    14    15 ar  
    29    15    16 1   
    30    16    20 1   
    31    16    40 1   
    32    17    18 ar  
    33    17    22 ar  
    34    17    24 1   
    35    18    19 ar  
    36    18    41 1   
    37    19    20 ar  
    38    19    42 1   
    39    20    21 ar  
    40    21    22 ar  
    41    21    43 1   
    42    22    44 1   
    43    23    24 3   
    44    25    26 2   
    45    25    28 1   
    46    25    45 1   
    47    26    46 1   
    48    27    28 3   
@<TRIPOS>SUBSTRUCTURE
     1 T27         1 TEMP              0 ****  ****    0 ROOT
