@<TRIPOS>MOLECULE
tmc-278
46   48    1
SMALL
USER_CHARGES


@<TRIPOS>ATOM
      1 C1         35.1280   33.9680   33.2750 C.ar      1 T27         0.0000 
      2 N2         34.2470   34.5320   27.6140 N.ar      1 T27         0.0000 
      3 C3         34.3950   31.8320   34.3670 C.ar      1 T27         0.0000 
      4 C4         34.9610   31.0950   33.2890 C.ar      1 T27         0.0000 
      5 C5         35.7170   31.7170   32.2270 C.ar      1 T27         0.0000 
      6 C6         35.8060   33.2000   32.2270 C.ar      1 T27         0.0000 
      7 C7         35.1190   35.5120   33.3070 C.3       1 T27         0.0000 
      8 C2         34.5210   33.1910   34.3870 C.ar      1 T27         0.0000 
      9 C8         36.2680   30.8000   31.0700 C.3       1 T27         0.0000 
     10 N1         36.3570   33.8920   31.1580 N.pl3     1 T27         0.0000 
     11 C9         35.5120   34.9670   27.7490 C.ar      1 T27         0.0000 
     12 C10        36.3060   34.6680   28.8700 C.ar      1 T27         0.0000 
     13 C11        35.6940   34.0010   29.8810 C.ar      1 T27         0.0000 
     14 N3         34.4650   33.5170   29.8150 N.ar      1 T27         0.0000 
     15 C12        33.8390   33.7540   28.6940 C.ar      1 T27         0.0000 
     16 N4         32.5880   33.2410   28.4810 N.pl3     1 T27         0.0000 
     17 C13        30.2450   30.0830   30.1130 C.ar      1 T27         0.0000 
     18 C14        29.8050   30.7690   28.9980 C.ar      1 T27         0.0000 
     19 C15        30.6240   31.7690   28.4550 C.ar      1 T27         0.0000 
     20 C16        31.8200   32.2170   29.0390 C.ar      1 T27         0.0000 
     21 C17        32.1780   31.6550   30.2960 C.ar      1 T27         0.0000 
     22 C18        31.4470   30.4920   30.7970 C.ar      1 T27         0.0000 
     23 N5         28.8160   28.0760   30.9380 N.1       1 T27         0.0000 
     24 C19        29.4720   28.9450   30.5950 C.1       1 T27         0.0000 
     25 C20        33.3380   31.5130   36.7210 C.2       1 T27         0.0000 
     26 C21        33.8280   31.0990   35.5570 C.2       1 T27         0.0000 
     27 N6         32.6750   29.8000   38.5620 N.1       1 T27         0.0000 
     28 C22        32.9930   30.5750   37.7030 C.1       1 T27         0.0000 
     29 HC4        34.8610   30.0190   33.3970 H         1 T27         0.0000 
     30 H7_1       35.1910   35.9520   32.3040 H         1 T27         0.0000 
     31 H7_2       35.9420   35.8850   33.9280 H         1 T27         0.0000 
     32 H7_3       34.1430   35.7990   33.7190 H         1 T27         0.0000 
     33 HC2        34.1190   33.8080   35.1860 H         1 T27         0.0000 
     34 H8_1       37.3130   31.0520   30.8510 H         1 T27         0.0000 
     35 H8_2       35.6770   30.6880   30.1530 H         1 T27         0.0000 
     36 H8_3       36.2320   29.8270   31.5750 H         1 T27         0.0000 
     37 HN1        37.0510   34.5960   31.3760 H         1 T27         0.0000 
     38 HC9        35.8460   35.6660   26.9840 H         1 T27         0.0000 
     39 HC10       37.3150   35.0250   29.0520 H         1 T27         0.0000 
     40 HN4        32.2010   33.6190   27.6260 H         1 T27         0.0000 
     41 HC14       28.9750   30.3550   28.4330 H         1 T27         0.0000 
     42 HC15       30.2780   32.1490   27.4980 H         1 T27         0.0000 
     43 HC17       32.9950   32.0360   30.9020 H         1 T27         0.0000 
     44 HC18       31.8270   29.8700   31.6020 H         1 T27         0.0000 
     45 HC20       33.4120   32.5570   37.0160 H         1 T27         0.0000 
     46 HC21       33.7510   30.0230   35.4180 H         1 T27         0.0000 
@<TRIPOS>BOND
     1    1    6 ar   
     2    1    7 1    
     3    1    8 ar   
     4    2   11 ar   
     5    2   15 ar   
     6    3    4 ar   
     7    3    8 ar   
     8    3   26 1    
     9    4    5 ar   
    10    4   29 1    
    11    5    6 ar   
    12    5    9 1    
    13    6   10 1    
    14    7   30 1    
    15    7   31 1    
    16    7   32 1    
    17    8   33 1    
    18    9   34 1    
    19    9   35 1    
    20    9   36 1    
    21   10   13 1    
    22   10   37 1    
    23   11   12 ar   
    24   11   38 1    
    25   12   13 ar   
    26   12   39 1    
    27   13   14 ar   
    28   14   15 ar   
    29   15   16 1    
    30   16   20 1    
    31   16   40 1    
    32   17   18 ar   
    33   17   22 ar   
    34   17   24 1    
    35   18   19 ar   
    36   18   41 1    
    37   19   20 ar   
    38   19   42 1    
    39   20   21 ar   
    40   21   22 ar   
    41   21   43 1    
    42   22   44 1    
    43   23   24 3    
    44   25   26 2    
    45   25   28 1    
    46   25   45 1    
    47   26   46 1    
    48   27   28 3    
@<TRIPOS>SUBSTRUCTURE
     1 T27         1 GROUP             0 A     ****    0 ROOT    
