@<TRIPOS>MOLECULE
tmc-125
43   45    1
SMALL
USER_CHARGES


@<TRIPOS>ATOM
      1 C1         35.7017   33.1534   32.3409 C.ar      1 65B         0.0000 
      2 O17        36.2469   33.7801   31.1987 O.3       1 65B         0.0000 
      3 C2         35.6704   31.7460   32.3388 C.ar      1 65B         0.0000 
      4 C2'        35.9305   30.7874   31.1889 C.3       1 65B         0.0000 
      5 C3         35.0775   31.1222   33.4864 C.ar      1 65B         0.0000 
      6 C4         34.6221   31.9380   34.5260 C.ar      1 65B         0.0000 
      7 C5         34.8110   33.3230   34.5188 C.ar      1 65B         0.0000 
      8 C6         35.3132   33.9534   33.4167 C.ar      1 65B         0.0000 
      9 C6'        35.6429   35.4601   33.4979 C.3       1 65B         0.0000 
     10 C13        35.5856   33.9648   30.0298 C.ar      1 65B         0.0000 
     11 N12        34.3849   33.5208   29.8374 N.ar      1 65B         0.0000 
     12 C11        33.8039   33.7962   28.6695 C.ar      1 65B         0.0000 
     13 N5         32.6047   33.2136   28.3884 N.pl3     1 65B         0.0000 
     14 N16        34.3713   34.4192   27.6183 N.ar      1 65B         0.0000 
     15 C15        35.5443   34.8614   27.8219 C.ar      1 65B         0.0000 
     16 N18        35.8477   35.4320   26.6739 N.pl3     1 65B         0.0000 
     17 C14        36.2648   34.6703   28.9977 C.ar      1 65B         0.0000 
     18 C21        31.8173   32.1961   29.0422 C.ar      1 65B         0.0000 
     19 C22        30.6988   31.7752   28.3181 C.ar      1 65B         0.0000 
     20 C23        29.9194   30.6887   28.6094 C.ar      1 65B         0.0000 
     21 C24        30.1609   29.9701   29.8596 C.ar      1 65B         0.0000 
     22 C25        31.2074   30.4629   30.6956 C.ar      1 65B         0.0000 
     23 C26        32.0444   31.4966   30.2571 C.ar      1 65B         0.0000 
     24 C27        29.4328   28.6830   30.0341 C.1       1 65B         0.0000 
     25 N27        28.8859   27.6746   30.1734 N.1       1 65B         0.0000 
     26 C4'        33.9861   31.2658   35.6585 C.1       1 65B         0.0000 
     27 N4'        33.5132   30.8647   36.5967 N.1       1 65B         0.0000 
     28 Br         37.9502   35.4661   29.2282 Br        1 65B         0.0000 
     29 H2'1       36.3107   31.3637   30.3357 H         1 65B         0.0000 
     30 H2'2       34.9878   30.4948   30.7084 H         1 65B         0.0000 
     31 H2'3       36.4517   29.8408   31.3779 H         1 65B         0.0000 
     32 HC3        35.1051   30.0400   33.5717 H         1 65B         0.0000 
     33 HC5        34.4090   33.9401   35.3173 H         1 65B         0.0000 
     34 H6'1       36.0166   35.9038   32.5667 H         1 65B         0.0000 
     35 H6'2       36.4270   35.5971   34.2537 H         1 65B         0.0000 
     36 H6'3       34.8067   36.0815   33.8406 H         1 65B         0.0000 
     37 HN5        32.2424   33.5400   27.5017 H         1 65B         0.0000 
     38 H181       36.7984   35.7453   26.5254 H         1 65B         0.0000 
     39 H182       35.1197   35.4667   25.9722 H         1 65B         0.0000 
     40 HC22       30.4832   32.3934   27.4517 H         1 65B         0.0000 
     41 HC23       29.0403   30.4319   28.0250 H         1 65B         0.0000 
     42 HC25       31.4445   29.9559   31.6260 H         1 65B         0.0000 
     43 HC26       32.9145   31.6999   30.8748 H         1 65B         0.0000 
@<TRIPOS>BOND
     1    1    2 1    
     2    1    3 ar   
     3    1    8 ar   
     4    2   10 1    
     5    3    4 1    
     6    3    5 ar   
     7    4   29 1    
     8    4   30 1    
     9    4   31 1    
    10    5    6 ar   
    11    5   32 1    
    12    6    7 ar   
    13    6   26 1    
    14    7    8 ar   
    15    7   33 1    
    16    8    9 1    
    17    9   34 1    
    18    9   35 1    
    19    9   36 1    
    20   10   11 ar   
    21   10   17 ar   
    22   11   12 ar   
    23   12   13 1    
    24   12   14 ar   
    25   13   18 1    
    26   13   37 1    
    27   14   15 ar   
    28   15   16 1    
    29   15   17 ar   
    30   16   38 1    
    31   16   39 1    
    32   17   28 1    
    33   18   19 ar   
    34   18   23 ar   
    35   19   20 ar   
    36   19   40 1    
    37   20   21 ar   
    38   20   41 1    
    39   21   22 ar   
    40   21   24 1    
    41   22   23 ar   
    42   22   42 1    
    43   23   43 1    
    44   24   25 3    
    45   26   27 3    
@<TRIPOS>SUBSTRUCTURE
     1 65B         1 GROUP             0 A     ****    0 ROOT    
