@<TRIPOS>MOLECULE
LIG
43 47
SMALL
USER_CHARGES
@<TRIPOS>ATOM
      1 C1           -1.951      0.679     12.355 c3            1 LIG        0.066005
      2 O1           -2.618     -0.297     13.157 os            1 LIG       -0.364340
      3 C2           -1.870     -1.054     14.045 ca            1 LIG        0.267603
      4 C3           -2.501     -2.082     14.770 ca            1 LIG       -0.217918
      5 C4           -1.754     -2.852     15.659 ca            1 LIG       -0.136132
      6 C5           -0.395     -2.604     15.832 ca            1 LIG       -0.221960
      7 C6            0.232     -1.585     15.126 ca            1 LIG        0.281929
      8 N1            1.617     -1.365     15.370 nu            1 LIG       -0.567557
      9 C7            2.542     -0.457     14.797 cc            1 LIG        0.447086
     10 N2            2.172      0.383     13.779 nd            1 LIG       -0.555954
     11 C8            3.110      1.238     13.242 cd            1 LIG        0.211589
     12 C9            4.397      1.279     13.704 cc            1 LIG       -0.116914
     13 N3            4.738      0.494     14.769 na            1 LIG        0.063638
     14 C10           5.893      0.389     15.475 cc            1 LIG       -0.163298
     15 C11           5.611     -0.549     16.507 cd            1 LIG        0.031605
     16 N4            4.400     -1.074     16.361 nd            1 LIG       -0.514896
     17 C12           3.844     -0.392     15.341 cc            1 LIG        0.172649
     18 C13           2.628      2.138     12.123 ca            1 LIG        0.110803
     19 C14           3.544      2.628     11.172 ca            1 LIG       -0.200676
     20 C15           3.150      3.455     10.113 ca            1 LIG       -0.190319
     21 C16           1.804      3.811     10.023 ca            1 LIG        0.062210
     22 C17           0.991      4.605      9.127 cc            1 LIG       -0.012730
     23 N5           -0.250      4.613      9.530 nd            1 LIG       -0.400016
     24 N6           -0.328      3.883     10.629 na            1 LIG       -0.020558
     25 C18           0.892      3.345     10.987 ca            1 LIG        0.069559
     26 C19           1.263      2.512     12.047 ca            1 LIG       -0.254329
     27 C20          -0.512     -0.812     14.223 ca            1 LIG       -0.297884
     28 H1           -2.647      1.208     11.707 h1            1 LIG        0.054515
     29 H2           -1.204      0.200     11.732 h1            1 LIG        0.054515
     30 H3           -1.479      1.417     12.991 h1            1 LIG        0.054515
     31 H4           -3.546     -2.281     14.647 ha            1 LIG        0.153975
     32 H5           -2.231     -3.643     16.216 ha            1 LIG        0.148391
     33 H6            0.171     -3.208     16.538 ha            1 LIG        0.139231
     34 H7            1.999     -1.929     16.105 hn            1 LIG        0.364462
     35 H8            5.157      1.944     13.307 h4            1 LIG        0.122593
     36 H9            6.778      0.975     15.270 h4            1 LIG        0.149675
     37 H10           6.256     -0.838     17.294 h4            1 LIG        0.149486
     38 H11           4.585      2.347     11.239 ha            1 LIG        0.139135
     39 H12           3.869      3.805      9.387 ha            1 LIG        0.145026
     40 H13           1.304      5.136      8.241 h4            1 LIG        0.151419
     41 H14          -1.216      3.779     11.096 hn            1 LIG        0.285330
     42 H15           0.564      2.175     12.773 ha            1 LIG        0.152478
     43 H16          -0.060     -0.030     13.658 ha            1 LIG        0.186062
@<TRIPOS>BOND
        1  1  2  1
        2  1  28  1
        3  1  29  1
        4  1  30  1
        5  2  3  1
        6  3  4  2
        7  3  27  1
        8  4  5  1
        9  4  31  1
        10  5  6  2
        11  5  32  1
        12  6  7  1
        13  6  33  1
        14  7  8  1
        15  7  27  2
        16  8  9  1
        17  8  34  1
        18  9  10  2
        19  9  17  1
        20  10  11  1
        21  11  12  2
        22  11  18  1
        23  12  13  1
        24  12  35  1
        25  13  14  1
        26  13  17  1
        27  14  15  2
        28  14  36  1
        29  15  16  1
        30  15  37  1
        31  16  17  2
        32  18  19  2
        33  18  26  1
        34  19  20  1
        35  19  38  1
        36  20  21  2
        37  20  39  1
        38  21  22  1
        39  21  25  1
        40  22  23  2
        41  22  40  1
        42  23  24  1
        43  24  25  1
        44  24  41  1
        45  25  26  2
        46  26  42  1
        47  27  43  1
@<TRIPOS>SUBSTRUCTURE
       1 LIG             1 RESIDUE    0 **** ROOT      0
