@<TRIPOS>MOLECULE
LIG
67 71 1 0 1
SMALL
USER_CHARGES
@<TRIPOS>ATOM
       1 C1          -4.2555    -3.1029    13.5707 aa            1 LIG        0.067103
       2 O1          -3.8740    -2.3535    14.7166 oc            1 LIG       -0.327092
       3 C2          -2.5261    -2.1057    14.8053 cm            1 LIG        0.181604
       4 C3          -1.7497    -2.8673    15.6804 ck            1 LIG       -0.226694
       5 C4          -0.3863    -2.6106    15.8150 ck            1 LIG       -0.225662
       6 C5           0.2220    -1.5829    15.0890 cm            1 LIG        0.286962
       7 N1           1.5930    -1.3491    15.3060 nl            1 LIG       -0.597961
       8 C6           2.5452    -0.4689    14.7536 ct            1 LIG        0.446380
       9 N2           2.2178     0.3551    13.7190 ng            1 LIG       -0.573446
      10 C7           3.1227     1.2406    13.2181 cj            1 LIG        0.238480
      11 C8           4.4207     1.3039    13.7175 ct            1 LIG       -0.120108
      12 N3           4.7482     0.4921    14.7654 nm            1 LIG        0.051424
      13 C9           5.8898     0.3836    15.5035 cw            1 LIG       -0.163154
      14 C10          5.5715    -0.5089    16.5177 ci            1 LIG        0.030431
      15 N4           4.3818    -1.0543    16.3920 ng            1 LIG       -0.522270
      16 C11          3.8330    -0.4170    15.3252 cw            1 LIG        0.181862
      17 C12          2.6564     2.1560    12.1340 cn            1 LIG        0.060476
      18 C13          3.5566     2.6280    11.1666 ck            1 LIG       -0.186386
      19 C14          3.1294     3.4499    10.1277 ck            1 LIG       -0.141167
      20 C15          1.7879     3.8078    10.0318 ck            1 LIG       -0.183744
      21 C16          0.8660     3.3707    10.9895 cm            1 LIG        0.002389
      22 C17          1.3140     2.5576    12.0419 ck            1 LIG       -0.236774
      23 C18         -0.5783     3.7648    10.8956 cb            1 LIG        0.713340
      24 O2          -1.2780     3.6594     9.8925 oa            1 LIG       -0.606852
      25 N5          -1.0343     4.2553    12.0485 nk            1 LIG       -0.561217
      26 C19         -2.3943     4.7285    12.2897 cm            1 LIG        0.219480
      27 C20         -2.6544     5.5820    13.3553 ck            1 LIG       -0.224328
      28 C21         -3.9490     6.0325    13.5849 ck            1 LIG       -0.190478
      29 C22         -4.9835     5.6294    12.7489 cm            1 LIG        0.004858
      30 C23         -4.7235     4.7759    11.6833 ck            1 LIG       -0.190478
      31 C24         -3.4289     4.3254    11.4537 ck            1 LIG       -0.224328
      32 C25         -6.3808     6.1155    12.9967 cb            1 LIG        0.847208
      33 O3          -7.3335     5.7936    12.2928 oa            1 LIG       -0.725769
      34 N6          -6.3969     6.9226    14.0705 nj            1 LIG       -0.848247
      35 S1          -7.9316     7.5992    14.5333 sa            1 LIG        1.134883
      36 O4          -8.7871     6.4947    14.9809 ob            1 LIG       -0.614643
      37 O5          -8.3522     8.5161    13.4681 ob            1 LIG       -0.614643
      38 C26         -7.5285     8.5816    15.9619 ab            1 LIG       -0.259775
      39 C27         -0.5664    -0.8256    14.2115 ck            1 LIG       -0.299658
      40 C28         -1.9389    -1.0760    14.0580 cm            1 LIG        0.185001
      41 O6          -2.6991    -0.3052    13.2021 oc            1 LIG       -0.345968
      42 C29         -2.0020     0.6746    12.5251 aa            1 LIG        0.067862
      43 H1          -3.7528    -4.0708    13.5508 hi            1 LIG        0.057441
      44 H2          -4.0179    -2.5675    12.6505 hi            1 LIG        0.057441
      45 H3          -5.3306    -3.2808    13.5889 hi            1 LIG        0.057441
      46 H4          -2.2100    -3.6528    16.2607 hd            1 LIG        0.162662
      47 H5           0.1911    -3.2101    16.5029 hd            1 LIG        0.147422
      48 H6           2.0246    -1.8858    16.0475 hh            1 LIG        0.368490
      49 H7           5.1701     2.0030    13.3719 hb            1 LIG        0.118843
      50 H8           6.7656     0.9739    15.2897 hb            1 LIG        0.141773
      51 H9           6.2089    -0.8330    17.3301 hb            1 LIG        0.140106
      52 H10          4.5934     2.3309    11.2002 hd            1 LIG        0.135567
      53 H11          3.8342     3.7939     9.3845 hd            1 LIG        0.143662
      54 H12          1.4564     4.4350     9.2166 hd            1 LIG        0.168527
      55 H13          0.6053     2.2130    12.7811 hd            1 LIG        0.172094
      56 H14         -0.4948     4.3595    12.8959 hh            1 LIG        0.338485
      57 H15         -1.8489     5.8959    14.0061 hd            1 LIG        0.171413
      58 H16         -4.1515     6.6970    14.4145 hd            1 LIG        0.164901
      59 H17         -5.5289     4.4620    11.0325 hd            1 LIG        0.164901
      60 H18         -3.2264     3.6609    10.6241 hd            1 LIG        0.171413
      61 H19         -8.4319     9.0596    16.3408 hi            1 LIG        0.084879
      62 H20         -6.8023     9.3456    15.6843 hi            1 LIG        0.084879
      63 H21         -7.1045     7.9412    16.7353 hi            1 LIG        0.084879
      64 H22         -0.1547    -0.0168    13.6337 hd            1 LIG        0.193267
      65 H23         -2.6851     1.2257    11.8787 hi            1 LIG        0.053538
      66 H24         -1.2218     0.2131    11.9198 hi            1 LIG        0.053538
      67 H25         -1.5485     1.3591    13.2420 hi            1 LIG        0.053538
@<TRIPOS>BOND
       1        1        2 1
       2        1       43 1
       3        1       44 1
       4        1       45 1
       5        2        3 1
       6        3        4 2
       7        3       40 1
       8        4        5 1
       9        4       46 1
      10        5        6 2
      11        5       47 1
      12        6        7 1
      13        6       39 1
      14        7        8 1
      15        7       48 1
      16        8        9 2
      17        8       16 1
      18        9       10 1
      19       10       11 2
      20       10       17 1
      21       11       12 1
      22       11       49 1
      23       12       13 1
      24       12       16 1
      25       13       14 2
      26       13       50 1
      27       14       15 1
      28       14       51 1
      29       15       16 2
      30       17       18 2
      31       17       22 1
      32       18       19 1
      33       18       52 1
      34       19       20 2
      35       19       53 1
      36       20       21 1
      37       20       54 1
      38       21       22 2
      39       21       23 1
      40       22       55 1
      41       23       24 2
      42       23       25 1
      43       25       26 1
      44       25       56 1
      45       26       27 2
      46       26       31 1
      47       27       28 1
      48       27       57 1
      49       28       29 2
      50       28       58 1
      51       29       30 1
      52       29       32 1
      53       30       31 2
      54       30       59 1
      55       31       60 1
      56       32       33 2
      57       32       34 1
      58       34       35 1
      59       35       36 2
      60       35       37 2
      61       35       38 1
      62       38       61 1
      63       38       62 1
      64       38       63 1
      65       39       40 2
      66       39       64 1
      67       40       41 1
      68       41       42 1
      69       42       65 1
      70       42       66 1
      71       42       67 1
@<TRIPOS>SUBSTRUCTURE
       1 LIG             1 RESIDUE    0 **** ROOT      0
