@<TRIPOS>MOLECULE
LIG
53 58
SMALL
USER_CHARGES
@<TRIPOS>ATOM
      1 C1           -5.748     -4.135     14.092 C.aa          1 LIG        0.224707
      2 C2           -4.247     -3.796     14.104 C.ab          1 LIG       -0.087025
      3 C3           -4.005     -2.387     14.667 C.ad          1 LIG        0.115166
      4 C4           -4.721     -2.235     16.020 C.ae          1 LIG       -0.087025
      5 C5           -6.199     -2.653     15.914 C.af          1 LIG        0.224707
      6 O1           -6.295     -3.979     15.399 O.ah          1 LIG       -0.483718
      7 C6           -2.516     -2.102     14.803 C.ai          1 LIG        0.054999
      8 C7           -1.744     -2.865     15.677 C.aj          1 LIG       -0.193806
      9 C8           -0.395     -2.607     15.818 C.ak          1 LIG       -0.212422
     10 C9            0.217     -1.579     15.093 C.an          1 LIG        0.278950
     11 N1            1.596     -1.341     15.341 N.ao          1 LIG       -0.569145
     12 C10           2.535     -0.443     14.763 C.ap          1 LIG        0.446517
     13 N2            2.183      0.368     13.720 N.aq          1 LIG       -0.551906
     14 C11           3.114      1.237     13.216 C.av          1 LIG        0.212107
     15 C12           4.419      1.284     13.702 C.aw          1 LIG       -0.117684
     16 N3            4.747      0.488     14.759 N.ax          1 LIG        0.062978
     17 C13           5.898      0.377     15.486 C.ay          1 LIG       -0.163819
     18 C14           5.588     -0.524     16.529 C.az          1 LIG        0.031405
     19 N4            4.375     -1.042     16.375 N.bb          1 LIG       -0.515698
     20 C15           3.836     -0.393     15.327 C.bc          1 LIG        0.172818
     21 C16           2.638      2.162     12.120 C.bd          1 LIG        0.112081
     22 C17           3.546      2.640     11.162 C.bf          1 LIG       -0.192358
     23 C18           3.144      3.462     10.111 C.bg          1 LIG       -0.190668
     24 C19           1.798      3.816     10.018 C.bh          1 LIG        0.062676
     25 C20           0.991      4.593      9.120 C.bj          1 LIG       -0.012364
     26 N5           -0.250      4.605      9.513 N.bk          1 LIG       -0.401677
     27 N6           -0.338      3.895     10.626 N.bl          1 LIG       -0.021756
     28 C21           0.886      3.362     10.995 C.bm          1 LIG        0.070986
     29 C22           1.274      2.543     12.062 C.bn          1 LIG       -0.262853
     30 C23          -0.553     -0.816     14.195 C.bo          1 LIG       -0.212422
     31 C24          -1.922     -1.079     14.057 C.bp          1 LIG       -0.193806
     32 H1           -6.280     -3.484     13.394 H.bq          1 LIG        0.013518
     33 H2           -5.904     -5.158     13.755 H.bs          1 LIG        0.013518
     34 H3           -3.841     -3.876     13.098 H.bt          1 LIG        0.020863
     35 H4           -3.726     -4.532     14.720 H.bu          1 LIG        0.020863
     36 H5           -4.409     -1.651     13.968 H.bv          1 LIG        0.005512
     37 H6           -4.650     -1.208     16.376 H.bw          1 LIG        0.020863
     38 H7           -4.235     -2.865     16.767 H.bx          1 LIG        0.020863
     39 H8           -6.741     -1.968     15.257 H.by          1 LIG        0.013518
     40 H9           -6.678     -2.607     16.889 H.bz          1 LIG        0.013518
     41 H10          -2.199     -3.658     16.259 H.cb          1 LIG        0.141962
     42 H11           0.189     -3.203     16.508 H.ci          1 LIG        0.159311
     43 H12           1.965     -1.865     16.117 H.cj          1 LIG        0.362684
     44 H13           5.181      1.963     13.342 H.ck          1 LIG        0.119847
     45 H14           6.786      0.949     15.276 H.cm          1 LIG        0.148583
     46 H15           6.229     -0.794     17.352 H.cn          1 LIG        0.148859
     47 H16           4.588      2.347     11.222 H.ct          1 LIG        0.161103
     48 H17           3.853      3.806      9.383 H.cw          1 LIG        0.145598
     49 H18           1.302      5.114      8.237 H.da          1 LIG        0.150933
     50 H19          -1.227      3.794     11.090 H.db          1 LIG        0.282556
     51 H20           0.574      2.219     12.803 H.dc          1 LIG        0.134310
     52 H21          -0.116     -0.023     13.628 H.dd          1 LIG        0.159311
     53 H22          -2.523     -0.487     13.379 H.de          1 LIG        0.141962
@<TRIPOS>BOND
        1  1  2  1
        2  1  6  1
        3  1  32  1
        4  1  33  1
        5  2  3  1
        6  2  34  1
        7  2  35  1
        8  3  4  1
        9  3  7  1
        10  3  36  1
        11  4  5  1
        12  4  37  1
        13  4  38  1
        14  5  6  1
        15  5  39  1
        16  5  40  1
        17  7  8  2
        18  7  31  1
        19  8  9  1
        20  8  41  1
        21  9  10  2
        22  9  42  1
        23  10  11  1
        24  10  30  1
        25  11  12  1
        26  11  43  1
        27  12  13  2
        28  12  20  1
        29  13  14  1
        30  14  15  2
        31  14  21  1
        32  15  16  1
        33  15  44  1
        34  16  17  1
        35  16  20  1
        36  17  18  2
        37  17  45  1
        38  18  19  1
        39  18  46  1
        40  19  20  2
        41  21  22  2
        42  21  29  1
        43  22  23  1
        44  22  47  1
        45  23  24  2
        46  23  48  1
        47  24  25  1
        48  24  28  1
        49  25  26  2
        50  25  49  1
        51  26  27  1
        52  27  28  1
        53  27  50  1
        54  28  29  2
        55  29  51  1
        56  30  31  2
        57  30  52  1
        58  31  53  1
@<TRIPOS>SUBSTRUCTURE
       1 LIG             1 RESIDUE    0 **** ROOT      0
