@<TRIPOS>MOLECULE
LIG
51 55
SMALL
USER_CHARGES
@<TRIPOS>ATOM
      1 C1           -4.537     -3.361     15.641 C.aa          1 LIG       -0.107351
      2 N1           -3.956     -2.381     14.722 N.ab          1 LIG       -0.355760
      3 C2           -4.676     -2.052     13.497 C.ad          1 LIG        0.039164
      4 C3           -4.809     -3.197     12.473 C.ae          1 LIG        0.234453
      5 O1           -5.391     -2.795     11.254 O.af          1 LIG       -0.718533
      6 C4           -2.538     -2.117     14.811 C.ah          1 LIG        0.257301
      7 C5           -1.928     -1.093     14.046 C.ai          1 LIG       -0.215729
      8 C6           -0.551     -0.825     14.193 C.aj          1 LIG       -0.211240
      9 C7            0.218     -1.587     15.092 C.ak          1 LIG        0.265880
     10 N2            1.601     -1.360     15.330 N.an          1 LIG       -0.571343
     11 C8            2.533     -0.452     14.767 C.ao          1 LIG        0.445024
     12 N3            2.171      0.379     13.734 N.ap          1 LIG       -0.556026
     13 C9            3.106      1.237     13.218 C.aq          1 LIG        0.211369
     14 C10           4.415      1.280     13.697 C.av          1 LIG       -0.119730
     15 N4            4.744      0.482     14.757 N.aw          1 LIG        0.061090
     16 C11           5.899      0.381     15.484 C.ax          1 LIG       -0.164689
     17 C12           5.594     -0.534     16.524 C.ay          1 LIG        0.030151
     18 N5            4.381     -1.051     16.370 N.az          1 LIG       -0.517967
     19 C13           3.837     -0.404     15.320 C.bb          1 LIG        0.172618
     20 C14           2.631      2.159     12.122 C.bc          1 LIG        0.112542
     21 C15           3.542      2.643     11.162 C.bd          1 LIG       -0.192504
     22 C16           3.149      3.464     10.107 C.bf          1 LIG       -0.191205
     23 C17           1.805      3.818     10.015 C.bg          1 LIG        0.062037
     24 C18           0.994      4.598      9.117 C.bh          1 LIG       -0.012548
     25 N6           -0.246      4.606      9.516 N.bj          1 LIG       -0.403439
     26 N7           -0.333      3.891     10.630 N.bk          1 LIG       -0.022430
     27 C19           0.881      3.359     10.998 C.bl          1 LIG        0.070725
     28 C20           1.272      2.535     12.062 C.bm          1 LIG       -0.263369
     29 C21          -0.394     -2.606     15.817 C.bn          1 LIG       -0.211240
     30 C22          -1.749     -2.866     15.689 C.bo          1 LIG       -0.215729
     31 H1           -4.128     -4.358     15.484 H.bp          1 LIG        0.085318
     32 H2           -5.618     -3.413     15.496 H.bq          1 LIG        0.085318
     33 H3           -4.361     -3.064     16.677 H.bs          1 LIG        0.085318
     34 H4           -4.306     -1.189     12.979 H.bt          1 LIG        0.049361
     35 H5           -5.684     -1.732     13.763 H.bu          1 LIG        0.049361
     36 H6           -5.199     -4.120     12.907 H.bv          1 LIG        0.019643
     37 H7           -3.809     -3.566     12.275 H.bw          1 LIG        0.019643
     38 H8           -4.758     -2.245     10.774 H.bx          1 LIG        0.464461
     39 H9           -2.510     -0.489     13.374 H.by          1 LIG        0.137895
     40 H10          -0.109     -0.025     13.629 H.bz          1 LIG        0.156836
     41 H11           1.994     -1.943     16.059 H.cb          1 LIG        0.359587
     42 H12           5.175      1.960     13.339 H.ci          1 LIG        0.117036
     43 H13           6.782      0.962     15.277 H.cj          1 LIG        0.146132
     44 H14           6.234     -0.808     17.349 H.ck          1 LIG        0.146092
     45 H15           4.582      2.349     11.226 H.cm          1 LIG        0.162077
     46 H16           3.864      3.805      9.377 H.cn          1 LIG        0.144383
     47 H17           1.302      5.122      8.228 H.ct          1 LIG        0.149667
     48 H18          -1.223      3.786     11.098 H.cw          1 LIG        0.281769
     49 H19           0.565      2.199     12.808 H.da          1 LIG        0.133850
     50 H20           0.195     -3.198     16.505 H.db          1 LIG        0.156836
     51 H21          -2.186     -3.656     16.276 H.dc          1 LIG        0.137895
@<TRIPOS>BOND
        1  1  2  1
        2  1  31  1
        3  1  32  1
        4  1  33  1
        5  2  3  1
        6  2  6  1
        7  3  4  1
        8  3  34  1
        9  3  35  1
        10  4  5  1
        11  4  36  1
        12  4  37  1
        13  5  38  1
        14  6  7  2
        15  6  30  1
        16  7  8  1
        17  7  39  1
        18  8  9  2
        19  8  40  1
        20  9  10  1
        21  9  29  1
        22  10  11  1
        23  10  41  1
        24  11  12  2
        25  11  19  1
        26  12  13  1
        27  13  14  2
        28  13  20  1
        29  14  15  1
        30  14  42  1
        31  15  16  1
        32  15  19  1
        33  16  17  2
        34  16  43  1
        35  17  18  1
        36  17  44  1
        37  18  19  2
        38  20  21  2
        39  20  28  1
        40  21  22  1
        41  21  45  1
        42  22  23  2
        43  22  46  1
        44  23  24  1
        45  23  27  1
        46  24  25  2
        47  24  47  1
        48  25  26  1
        49  26  27  1
        50  26  48  1
        51  27  28  2
        52  28  49  1
        53  29  30  2
        54  29  50  1
        55  30  51  1
@<TRIPOS>SUBSTRUCTURE
       1 LIG             1 RESIDUE    0 **** ROOT      0
