@<TRIPOS>MOLECULE
LIG
45 48
SMALL
USER_CHARGES
@<TRIPOS>ATOM
      1 C1           24.659     34.176     50.592 C.aa          1 LIG       -0.242400
      2 C2           24.275     33.925     52.037 C.ab          1 LIG       -0.027445
      3 C3           25.174     34.148     53.078 C.ad          1 LIG        0.211138
      4 N1           24.853     33.926     54.378 N.ae          1 LIG       -0.549441
      5 C4           23.593     33.470     54.640 C.af          1 LIG        0.598252
      6 N2           22.648     33.237     53.687 N.ah          1 LIG       -0.549441
      7 C5           23.006     33.467     52.395 C.ai          1 LIG        0.211138
      8 C6           23.254     33.119     56.066 C.aj          1 LIG       -0.022148
      9 C7           24.247     33.109     57.060 C.ak          1 LIG       -0.166094
     10 C8           23.973     32.695     58.362 C.an          1 LIG       -0.136070
     11 C9           22.694     32.272     58.702 C.ao          1 LIG       -0.191901
     12 C10          21.673     32.288     57.749 C.ap          1 LIG        0.087277
     13 C11          20.257     31.871     58.148 C.aq          1 LIG        0.029090
     14 N3           19.932     30.472     57.811 N.av          1 LIG        0.046509
     15 N4           19.397     30.259     56.538 N.aw          1 LIG       -0.388770
     16 C12          19.069     29.083     56.099 C.ax          1 LIG        0.212079
     17 C13          19.327     27.971     57.005 C.ay          1 LIG       -0.098211
     18 C14          19.851     28.167     58.238 C.az          1 LIG       -0.191981
     19 C15          20.192     29.485     58.743 C.bb          1 LIG        0.588316
     20 O1           20.645     29.652     59.879 O.bc          1 LIG       -0.639370
     21 C16          18.474     28.871     54.753 C.bd          1 LIG        0.118114
     22 C17          18.036     27.613     54.306 C.bf          1 LIG       -0.266032
     23 C18          17.449     27.460     53.050 C.bg          1 LIG        0.224367
     24 F1           17.019     26.245     52.648 F.bh          1 LIG       -0.160947
     25 C19          17.297     28.562     52.211 C.bj          1 LIG       -0.275278
     26 C20          17.732     29.815     52.630 C.bk          1 LIG        0.224367
     27 F2           17.580     30.893     51.823 F.bl          1 LIG       -0.160947
     28 C21          18.317     29.967     53.886 C.bm          1 LIG       -0.266032
     29 C22          21.956     32.725     56.448 C.bn          1 LIG       -0.225925
     30 H1           24.119     33.509     49.919 H.bo          1 LIG        0.084335
     31 H2           25.726     34.012     50.440 H.bp          1 LIG        0.084335
     32 H3           24.430     35.205     50.313 H.bq          1 LIG        0.084335
     33 H4           26.175     34.502     52.878 H.bs          1 LIG        0.059172
     34 H5           22.248     33.281     51.644 H.bt          1 LIG        0.059172
     35 H6           25.261     33.401     56.819 H.bu          1 LIG        0.166300
     36 H7           24.763     32.694     59.100 H.bv          1 LIG        0.147883
     37 H8           22.492     31.927     59.708 H.bw          1 LIG        0.145433
     38 H9           20.095     32.073     59.209 H.bx          1 LIG        0.081734
     39 H10          19.544     32.531     57.646 H.by          1 LIG        0.081734
     40 H11          19.117     26.948     56.731 H.bz          1 LIG        0.119320
     41 H12          20.040     27.320     58.878 H.cb          1 LIG        0.140456
     42 H13          18.121     26.727     54.911 H.ci          1 LIG        0.184936
     43 H14          16.842     28.442     51.239 H.cj          1 LIG        0.189668
     44 H15          18.641     30.959     54.172 H.ck          1 LIG        0.184936
     45 H16          21.159     32.725     55.718 H.cm          1 LIG        0.194039
@<TRIPOS>BOND
        1  1  2  1
        2  1  30  1
        3  1  31  1
        4  1  32  1
        5  2  3  2
        6  2  7  1
        7  3  4  1
        8  3  33  1
        9  4  5  2
        10  5  6  1
        11  5  8  1
        12  6  7  2
        13  7  34  1
        14  8  9  2
        15  8  29  1
        16  9  10  1
        17  9  35  1
        18  10  11  2
        19  10  36  1
        20  11  12  1
        21  11  37  1
        22  12  13  1
        23  12  29  2
        24  13  14  1
        25  13  38  1
        26  13  39  1
        27  14  15  1
        28  14  19  1
        29  15  16  2
        30  16  17  1
        31  16  21  1
        32  17  18  2
        33  17  40  1
        34  18  19  1
        35  18  41  1
        36  19  20  2
        37  21  22  2
        38  21  28  1
        39  22  23  1
        40  22  42  1
        41  23  24  1
        42  23  25  2
        43  25  26  1
        44  25  43  1
        45  26  27  1
        46  26  28  2
        47  28  44  1
        48  29  45  1
@<TRIPOS>SUBSTRUCTURE
       1 LIG             1 RESIDUE    0 **** ROOT      0
