@<TRIPOS>MOLECULE
LIG
51 55
SMALL
USER_CHARGES
@<TRIPOS>ATOM
      1 C1           -4.257     -3.105     13.569 C.aa          1 LIG        0.066092
      2 O1           -3.873     -2.361     14.716 O.ab          1 LIG       -0.355282
      3 C2           -2.526     -2.111     14.817 C.ad          1 LIG        0.190266
      4 C3           -1.747     -2.870     15.681 C.ae          1 LIG       -0.222372
      5 C4           -0.391     -2.610     15.814 C.af          1 LIG       -0.224409
      6 C5            0.221     -1.586     15.087 C.ah          1 LIG        0.272748
      7 N1            1.603     -1.359     15.324 N.ai          1 LIG       -0.568143
      8 C6            2.535     -0.446     14.764 C.aj          1 LIG        0.445516
      9 N2            2.178      0.378     13.729 N.ak          1 LIG       -0.554174
     10 C7            3.119      1.236     13.221 C.an          1 LIG        0.212759
     11 C8            4.418      1.281     13.705 C.ao          1 LIG       -0.120391
     12 N3            4.746      0.487     14.762 N.ap          1 LIG        0.062363
     13 C9            5.898      0.379     15.486 C.aq          1 LIG       -0.164952
     14 C10           5.591     -0.528     16.527 C.av          1 LIG        0.030117
     15 N4            4.378     -1.044     16.372 N.aw          1 LIG       -0.517723
     16 C11           3.836     -0.393     15.326 C.ax          1 LIG        0.171892
     17 C12           2.661      2.150     12.124 C.ay          1 LIG        0.101088
     18 C13           3.571      2.635     11.163 C.az          1 LIG       -0.201715
     19 C14           3.135      3.461     10.120 C.bb          1 LIG       -0.212332
     20 C15           1.793      3.815     10.038 C.bc          1 LIG        0.195371
     21 O2            1.401      4.632      8.989 O.bd          1 LIG       -0.394459
     22 C16           0.009      4.590      8.676 C.bf          1 LIG        0.216934
     23 C17          -0.819      4.737      9.957 C.bg          1 LIG        0.069693
     24 N5           -0.476      3.706     10.929 N.bh          1 LIG       -0.559940
     25 C18           0.882      3.352     10.999 C.bj          1 LIG        0.208758
     26 C19           1.317      2.538     12.035 C.bk          1 LIG       -0.279059
     27 C20          -0.555     -0.819     14.190 C.bl          1 LIG       -0.299765
     28 C21          -1.943     -1.089     14.060 C.bm          1 LIG        0.202138
     29 O3           -2.751     -0.353     13.206 O.bn          1 LIG       -0.348156
     30 C22          -2.211      0.501     12.216 C.bo          1 LIG        0.060483
     31 H1           -5.336     -3.253     13.586 H.bp          1 LIG        0.054098
     32 H2           -3.788     -4.090     13.559 H.bq          1 LIG        0.054098
     33 H3           -4.012     -2.582     12.643 H.bs          1 LIG        0.054098
     34 H4           -2.197     -3.661     16.263 H.bt          1 LIG        0.153749
     35 H5            0.199     -3.205     16.499 H.bu          1 LIG        0.143207
     36 H6            1.992     -1.938     16.055 H.bv          1 LIG        0.363163
     37 H7            5.179      1.959     13.343 H.bw          1 LIG        0.118298
     38 H8            6.784      0.955     15.277 H.bx          1 LIG        0.146203
     39 H9            6.233     -0.802     17.350 H.by          1 LIG        0.146315
     40 H10           4.608      2.352     11.217 H.bz          1 LIG        0.157523
     41 H11           3.836      3.813      9.382 H.cb          1 LIG        0.158457
     42 H12          -0.249      3.656      8.176 H.ci          1 LIG        0.026892
     43 H13          -0.244      5.402      7.993 H.cj          1 LIG        0.026892
     44 H14          -1.888      4.624      9.749 H.ck          1 LIG        0.042454
     45 H15          -0.713      5.729     10.399 H.cm          1 LIG        0.042454
     46 H16          -1.128      3.499     11.658 H.cn          1 LIG        0.319679
     47 H17           0.610      2.209     12.781 H.ct          1 LIG        0.135789
     48 H18          -0.110     -0.030     13.623 H.cw          1 LIG        0.197474
     49 H19          -3.032      0.953     11.656 H.da          1 LIG        0.058602
     50 H20          -1.595     -0.048     11.504 H.db          1 LIG        0.058602
     51 H21          -1.638      1.307     12.666 H.dc          1 LIG        0.058602
@<TRIPOS>BOND
        1  1  2  1
        2  1  31  1
        3  1  32  1
        4  1  33  1
        5  2  3  1
        6  3  4  2
        7  3  28  1
        8  4  5  1
        9  4  34  1
        10  5  6  2
        11  5  35  1
        12  6  7  1
        13  6  27  1
        14  7  8  1
        15  7  36  1
        16  8  9  2
        17  8  16  1
        18  9  10  1
        19  10  11  2
        20  10  17  1
        21  11  12  1
        22  11  37  1
        23  12  13  1
        24  12  16  1
        25  13  14  2
        26  13  38  1
        27  14  15  1
        28  14  39  1
        29  15  16  2
        30  17  18  2
        31  17  26  1
        32  18  19  1
        33  18  40  1
        34  19  20  2
        35  19  41  1
        36  20  21  1
        37  20  25  1
        38  21  22  1
        39  22  23  1
        40  22  42  1
        41  22  43  1
        42  23  24  1
        43  23  44  1
        44  23  45  1
        45  24  25  1
        46  24  46  1
        47  25  26  2
        48  26  47  1
        49  27  28  2
        50  27  48  1
        51  28  29  1
        52  29  30  1
        53  30  49  1
        54  30  50  1
        55  30  51  1
@<TRIPOS>SUBSTRUCTURE
       1 LIG             1 RESIDUE    0 **** ROOT      0
