tmc-125
                    3D
 Schrodinger Suite 2022-2.
  0  0  0     0  0            999 V3000
M  V30 BEGIN CTAB
M  V30 COUNTS 43 45 0 0 0
M  V30 BEGIN ATOM
M  V30 1 C  35.7017 33.1534 32.3409 0
M  V30 2 O  36.2469 33.7801 31.1987 0
M  V30 3 C  35.6704 31.7460 32.3388 0
M  V30 4 C  35.9305 30.7874 31.1889 0
M  V30 5 C  35.0775 31.1222 33.4864 0
M  V30 6 C  34.6221 31.9380 34.5260 0
M  V30 7 C  34.8110 33.3230 34.5188 0
M  V30 8 C  35.3132 33.9534 33.4167 0
M  V30 9 C  35.6429 35.4601 33.4979 0
M  V30 10 C  35.5856 33.9648 30.0298 0
M  V30 11 N  34.3849 33.5208 29.8374 0
M  V30 12 C  33.8039 33.7962 28.6695 0
M  V30 13 N  32.6047 33.2136 28.3884 0
M  V30 14 N  34.3713 34.4192 27.6183 0
M  V30 15 C  35.5443 34.8614 27.8219 0
M  V30 16 N  35.8477 35.4320 26.6739 0
M  V30 17 C  36.2648 34.6703 28.9977 0
M  V30 18 C  31.8173 32.1961 29.0422 0
M  V30 19 C  30.6988 31.7752 28.3181 0
M  V30 20 C  29.9194 30.6887 28.6094 0
M  V30 21 C  30.1609 29.9701 29.8596 0
M  V30 22 C  31.2074 30.4629 30.6956 0
M  V30 23 C  32.0444 31.4966 30.2571 0
M  V30 24 C  29.4328 28.6830 30.0341 0
M  V30 25 N  28.8859 27.6746 30.1734 0
M  V30 26 C  33.9861 31.2658 35.6585 0
M  V30 27 N  33.5132 30.8647 36.5967 0
M  V30 28 Br 37.9502 35.4661 29.2282 0
M  V30 29 H  36.3107 31.3637 30.3357 0
M  V30 30 H  34.9878 30.4948 30.7084 0
M  V30 31 H  36.4517 29.8408 31.3779 0
M  V30 32 H  35.1051 30.0400 33.5717 0
M  V30 33 H  34.4090 33.9401 35.3173 0
M  V30 34 H  36.0166 35.9038 32.5667 0
M  V30 35 H  36.4270 35.5971 34.2537 0
M  V30 36 H  34.8067 36.0815 33.8406 0
M  V30 37 H  32.2424 33.5400 27.5017 0
M  V30 38 H  36.7984 35.7453 26.5254 0
M  V30 39 H  35.1197 35.4667 25.9722 0
M  V30 40 H  30.4832 32.3934 27.4517 0
M  V30 41 H  29.0403 30.4319 28.0250 0
M  V30 42 H  31.4445 29.9559 31.6260 0
M  V30 43 H  32.9145 31.6999 30.8748 0
M  V30 END ATOM
M  V30 BEGIN BOND
M  V30 1 1 1 2
M  V30 2 1 1 3
M  V30 3 2 1 8
M  V30 4 1 2 10
M  V30 5 1 3 4
M  V30 6 2 3 5
M  V30 7 1 4 29
M  V30 8 1 4 30
M  V30 9 1 4 31
M  V30 10 1 5 6
M  V30 11 1 5 32
M  V30 12 2 6 7
M  V30 13 1 6 26
M  V30 14 1 7 8
M  V30 15 1 7 33
M  V30 16 1 8 9
M  V30 17 1 9 34
M  V30 18 1 9 35
M  V30 19 1 9 36
M  V30 20 1 10 11
M  V30 21 2 10 17
M  V30 22 2 11 12
M  V30 23 1 12 13
M  V30 24 1 12 14
M  V30 25 1 13 18
M  V30 26 1 13 37
M  V30 27 2 14 15
M  V30 28 1 15 16
M  V30 29 1 15 17
M  V30 30 1 16 38
M  V30 31 1 16 39
M  V30 32 1 17 28
M  V30 33 1 18 19
M  V30 34 2 18 23
M  V30 35 2 19 20
M  V30 36 1 19 40
M  V30 37 1 20 21
M  V30 38 1 20 41
M  V30 39 2 21 22
M  V30 40 1 21 24
M  V30 41 1 22 23
M  V30 42 1 22 42
M  V30 43 1 23 43
M  V30 44 3 24 25
M  V30 45 3 26 27
M  V30 END BOND
M  V30 END CTAB
M  END
> <entry id>
45

> <entry name>
hiv-rt-amber-tmc278-tmc125_0.1_ligand6

> <PDB CRYST1 a>
72.535

> <PDB CRYST1 b>
71.091

> <PDB CRYST1 c>
70.541

> <PDB CRYST1 alpha>
90

> <PDB CRYST1 beta>
90

> <PDB CRYST1 gamma>
90

> <PDB CRYST1 Space Group>
P 1

> <PDB CRYST1 z>
1

> <PDB format version>
3.0

> <Source Path>
/Users/sheenam/Downloads

> <Source File>
hiv-rt-amber-tmc278-tmc125_0.pdb

> <Source File Index>
1

> <subgroup title>
hiv-rt-amber-tmc278-tmc125_0_split_by_structure

> <subgroupid>
hiv-rt-amber-tmc278-tmc125_0_split_by_structure

> <subgroup collapsed>
0

$$$$
